/*---------------------------------------------------------------------------*\
| =========                 |                                                 |
| \\      /  F ield         | OpenFOAM: The Open Source CFD Toolbox           |
|  \\    /   O peration     | Version:  1.7.x                                 |
|   \\  /    A nd           | Web:      www.OpenFOAM.com                      |
|    \\/     M anipulation  |                                                 |
\*---------------------------------------------------------------------------*/
Build  : 1.7.x-e90828cd94a4
Exec   : fireFoam
Date   : Mar 29 2011
Time   : 17:01:39
Host   : wangyUbuntu
PID    : 13801
Case   : /home/wangy/OpenFOAM/wangy-1.7.x/run/fireFoam/testBatteryFireFOAM/1DpyrolysisTest
nProcs : 1
SigFpe : Enabling floating point exception trapping (FOAM_SIGFPE).

// * * * * * * * * * * * * * * * * * * * * * * * * * * * * * * * * * * * * * //
FireFOAM Build Version:  b9651e83c7062afe528a804dea39861c9759afb7
FireFOAM Build Time Stamp:  Tue Mar 29 15:29:10 EDT 2011
****************************************************
Create time

Create mesh for time = 0


Reading g
Reading thermophysical properties

Selecting thermodynamics package hsPsiMixtureThermoNew<singleStepReactingMixture<gasThermoPhysics>>
Selecting chemistryReader foamChemistryReader
Fuel heat of combustion :5.00314e+07
Mole based specieStoichCoeffs: 5(-2 2 -1 1 7.52)
stoichiometric air-fuel ratio :17.1204
stoichiometric oxygen-fuel ratio :3.98918
Max products: 5(0 0.123944 0 0.151392 0.724664)
mass based specieStoichCoeffs: 5(-3.98918 2.2459 -1 2.74329 13.1312)
Creating component thermo properties:
    multi-component carrier - 5 species
    liquids - 1 components
    solids - 0 components
Reading field p_rgh

Reading field U

Reading/calculating face flux field phi

Creating turbulence model

Selecting turbulence model type LESModel
Selecting LES turbulence model oneEqEddy
--> FOAM Warning : 
    From function cubeRootVolDelta::calcDelta()
    in file cubeRootVolDelta/cubeRootVolDelta.C at line 52
    Case is 2D, LES is not strictly applicable

oneEqEddyCoeffs
{
    Prt             1;
    ce              1.048;
    ck              0.094;
}

Creating combustion model

Selecting combustion model infinitelyFastChemistry
stoichiometric mixture fraction is = 0.0551866
Creating field DpDt

Calculating field g.h

Selecting radiationModel P1
Selecting absorptionEmissionModel constantAbsorptionEmission
Selecting scatterModel constantScatter
Creating pyrolysis model

Selecting pyrolysisModel reactingOneDim
Selecting solidChemistryModel "ODESolidChemistryModel<constSolidThermoPhysics>gasThermoPhysics"
ODESolidChemistryModel: Number of solids = 2 and reactions = 1
Number of gases from pyrolysis = 1
Reaction 0
irreversibleSolidArrheniusReaction
    v = char +  gas
    Reaction order: 4.86
(7.83e+10 15274.6 400)
Selecting ODE solver SIBS

Constructing reacting cloud
Selecting DispersionModel none
Selecting DragModel SphereDrag
Selecting InjectionModel ConeInjection
    Constructing 2-D injection
Selecting pdfType RosinRammler
Selecting PatchInteractionModel StandardWallInteraction
Selecting PostProcessingModel none
Selecting SurfaceFilmModel ThermoSurfaceFilm
    Applying absorb interaction model
Selecting U IntegrationScheme Euler
Selecting HeatTransferModel RanzMarshall
Selecting T IntegrationScheme Analytical
Selecting CompositionModel SinglePhaseMixture
Selecting PhaseChangeModel LiquidEvaporation

Constructing surface film model
Selecting surfaceFilmModel none
Courant Number mean: 0 max: 0

Starting time loop

Courant Number mean: 0 max: 0
faceSource patchPanel:
    total faces  = 1
    total area   = 1


faceSource patchPanelSolid:
    total faces  = 1
    total area   = 1


Time = 0.2

diagonal:  Solving for rho, Initial residual = 0, Final residual = 0, No Iterations 0
DILUPBiCG:  Solving for Ux, Initial residual = 1, Final residual = 0, No Iterations 1
DILUPBiCG:  Solving for Uz, Initial residual = 1, Final residual = 0, No Iterations 1
DILUPBiCG:  Solving for O2, Initial residual = 0.999955, Final residual = 0, No Iterations 1
max of O2 = 0.23301
min of O2 = 0.23301
DILUPBiCG:  Solving for H2O, Initial residual = 0, Final residual = 0, No Iterations 0
max of H2O = 0
min of H2O = 0
DILUPBiCG:  Solving for CH4, Initial residual = 0.99999, Final residual = 0, No Iterations 1
max of CH4 = 1.3275e-12
min of CH4 = 1.69611e-16
DILUPBiCG:  Solving for CO2, Initial residual = 0, Final residual = 0, No Iterations 0
max of CO2 = 0
min of CO2 = 0
max of N2 = 0.76699
min of N2 = 0
DICPCG:  Solving for G, Initial residual = 1, Final residual = 1.27181e-16, No Iterations 1
DILUPBiCG:  Solving for hs, Initial residual = 0.999999, Final residual = 0, No Iterations 1
GAMG:  Solving for p_rgh, Initial residual = 1, Final residual = 0, No Iterations 1
diagonal:  Solving for rho, Initial residual = 0, Final residual = 0, No Iterations 0
time step continuity errors : sum local = 9.01985e-14, global = -9.01985e-14, cumulative = -9.01985e-14
GAMG:  Solving for p_rgh, Initial residual = 1, Final residual = 0, No Iterations 1
diagonal:  Solving for rho, Initial residual = 0, Final residual = 0, No Iterations 0
time step continuity errors : sum local = 1.01986e-12, global = 1.01986e-12, cumulative = 9.29666e-13
DILUPBiCG:  Solving for k, Initial residual = 1, Final residual = 0, No Iterations 1

Evolving reactingOneDim for region panelRegion
diagonal:  Solving for rho, Initial residual = 0, Final residual = 0, No Iterations 0
diagonal:  Solving for Yv, Initial residual = 0, Final residual = 0, No Iterations 0
DICPCG:  Solving for T, Initial residual = 1, Final residual = 3.65616e-18, No Iterations 1
pyrolysis min/max(T) = 298.15, 416.178

Pyrolysis: reactingOneDim
    Total gas mass produced  [kg] = 0
    Total solid mass lost    [kg] = 0
    Total pyrolysis gases  [kg/s] = 0
    Total heat release rate [J/s] = 0

ExecutionTime = 0.04 s  ClockTime = 0 s

Courant Number mean: 0 max: 0
Time = 0.4

diagonal:  Solving for rho, Initial residual = 0, Final residual = 0, No Iterations 0
DILUPBiCG:  Solving for Ux, Initial residual = 1, Final residual = 0, No Iterations 1
DILUPBiCG:  Solving for Uz, Initial residual = 1, Final residual = 0, No Iterations 1
DILUPBiCG:  Solving for O2, Initial residual = 0.999955, Final residual = 0, No Iterations 1
max of O2 = 0.23301
min of O2 = 0.23301
DILUPBiCG:  Solving for H2O, Initial residual = 0.959618, Final residual = 0, No Iterations 1
max of H2O = 0
min of H2O = -4.0298e-20
DILUPBiCG:  Solving for CH4, Initial residual = 0.99999, Final residual = 0, No Iterations 1
max of CH4 = 1.32664e-12
min of CH4 = 0
DILUPBiCG:  Solving for CO2, Initial residual = 0.972568, Final residual = 1.3208e-16, No Iterations 1
max of CO2 = 0
min of CO2 = -6.01234e-20
max of N2 = 0.76699
min of N2 = 0
DICPCG:  Solving for G, Initial residual = 1, Final residual = 0, No Iterations 1
DILUPBiCG:  Solving for hs, Initial residual = 1, Final residual = 0, No Iterations 1
GAMG:  Solving for p_rgh, Initial residual = 1, Final residual = 0, No Iterations 1
diagonal:  Solving for rho, Initial residual = 0, Final residual = 0, No Iterations 0
time step continuity errors : sum local = 1.06694e-12, global = -1.06694e-12, cumulative = -1.37278e-13
GAMG:  Solving for p_rgh, Initial residual = 1, Final residual = 0, No Iterations 1
diagonal:  Solving for rho, Initial residual = 0, Final residual = 0, No Iterations 0
time step continuity errors : sum local = 3.70399e-13, global = 3.70399e-13, cumulative = 2.3312e-13
DILUPBiCG:  Solving for k, Initial residual = 1, Final residual = 0, No Iterations 1

Evolving reactingOneDim for region panelRegion
diagonal:  Solving for rho, Initial residual = 0, Final residual = 0, No Iterations 0
diagonal:  Solving for Yv, Initial residual = 0, Final residual = 0, No Iterations 0
DICPCG:  Solving for T, Initial residual = 0.225752, Final residual = 1.50788e-18, No Iterations 1
pyrolysis min/max(T) = 298.15, 424.132

Pyrolysis: reactingOneDim
    Total gas mass produced  [kg] = 0
    Total solid mass lost    [kg] = 0
    Total pyrolysis gases  [kg/s] = 0
    Total heat release rate [J/s] = 0

ExecutionTime = 0.05 s  ClockTime = 0 s

Courant Number mean: 0 max: 0
Time = 0.6

diagonal:  Solving for rho, Initial residual = 0, Final residual = 0, No Iterations 0
DILUPBiCG:  Solving for Ux, Initial residual = 1, Final residual = 0, No Iterations 1
DILUPBiCG:  Solving for Uz, Initial residual = 1, Final residual = 0, No Iterations 1
DILUPBiCG:  Solving for O2, Initial residual = 0.999955, Final residual = 0, No Iterations 1
max of O2 = 0.23301
min of O2 = 0.23301
DILUPBiCG:  Solving for H2O, Initial residual = 0.979387, Final residual = 0, No Iterations 1
max of H2O = 0
min of H2O = -1.20873e-19
DILUPBiCG:  Solving for CH4, Initial residual = 0.99999, Final residual = 0, No Iterations 1
max of CH4 = 1.32483e-12
min of CH4 = 0
DILUPBiCG:  Solving for CO2, Initial residual = 0.98609, Final residual = 0, No Iterations 1
max of CO2 = 0
min of CO2 = -1.80339e-19
max of N2 = 0.76699
min of N2 = 0
DICPCG:  Solving for G, Initial residual = 1, Final residual = 1.36706e-16, No Iterations 1
DILUPBiCG:  Solving for hs, Initial residual = 1, Final residual = 0, No Iterations 1
GAMG:  Solving for p_rgh, Initial residual = 1, Final residual = 0, No Iterations 1
diagonal:  Solving for rho, Initial residual = 0, Final residual = 0, No Iterations 0
time step continuity errors : sum local = 8.16126e-13, global = 8.16126e-13, cumulative = 1.04925e-12
GAMG:  Solving for p_rgh, Initial residual = 1, Final residual = 0, No Iterations 1
diagonal:  Solving for rho, Initial residual = 0, Final residual = 0, No Iterations 0
time step continuity errors : sum local = 7.19336e-13, global = 7.19336e-13, cumulative = 1.76858e-12
DILUPBiCG:  Solving for k, Initial residual = 1, Final residual = 0, No Iterations 1

Evolving reactingOneDim for region panelRegion
diagonal:  Solving for rho, Initial residual = 0, Final residual = 0, No Iterations 0
diagonal:  Solving for Yv, Initial residual = 0, Final residual = 0, No Iterations 0
DICPCG:  Solving for T, Initial residual = 0.12952, Final residual = 4.46556e-18, No Iterations 1
pyrolysis min/max(T) = 298.15, 431.799

Pyrolysis: reactingOneDim
    Total gas mass produced  [kg] = 0
    Total solid mass lost    [kg] = 0
    Total pyrolysis gases  [kg/s] = 0
    Total heat release rate [J/s] = 0

ExecutionTime = 0.05 s  ClockTime = 0 s

Courant Number mean: 0 max: 0
Time = 0.8

diagonal:  Solving for rho, Initial residual = 0, Final residual = 0, No Iterations 0
DILUPBiCG:  Solving for Ux, Initial residual = 1, Final residual = 0, No Iterations 1
DILUPBiCG:  Solving for Uz, Initial residual = 1, Final residual = 0, No Iterations 1
DILUPBiCG:  Solving for O2, Initial residual = 0.999955, Final residual = 0, No Iterations 1
max of O2 = 0.23301
min of O2 = 0.23301
DILUPBiCG:  Solving for H2O, Initial residual = 0.98616, Final residual = 0, No Iterations 1
max of H2O = 0
min of H2O = -2.41713e-19
DILUPBiCG:  Solving for CH4, Initial residual = 0.99999, Final residual = 0, No Iterations 1
max of CH4 = 1.32314e-12
min of CH4 = 0
DILUPBiCG:  Solving for CO2, Initial residual = 0.990681, Final residual = 0, No Iterations 1
max of CO2 = 0
min of CO2 = -3.60629e-19
max of N2 = 0.76699
min of N2 = 0
DICPCG:  Solving for G, Initial residual = 1, Final residual = 1.30879e-16, No Iterations 1
DILUPBiCG:  Solving for hs, Initial residual = 1, Final residual = 0, No Iterations 1
GAMG:  Solving for p_rgh, Initial residual = 1, Final residual = 0, No Iterations 1
diagonal:  Solving for rho, Initial residual = 0, Final residual = 0, No Iterations 0
time step continuity errors : sum local = 9.74502e-13, global = 9.74502e-13, cumulative = 2.74308e-12
GAMG:  Solving for p_rgh, Initial residual = 1, Final residual = 0, No Iterations 1
diagonal:  Solving for rho, Initial residual = 0, Final residual = 0, No Iterations 0
time step continuity errors : sum local = 8.4777e-13, global = 8.4777e-13, cumulative = 3.59085e-12
DILUPBiCG:  Solving for k, Initial residual = 1, Final residual = 0, No Iterations 1

Evolving reactingOneDim for region panelRegion
diagonal:  Solving for rho, Initial residual = 0, Final residual = 0, No Iterations 0
diagonal:  Solving for Yv, Initial residual = 0, Final residual = 0, No Iterations 0
DICPCG:  Solving for T, Initial residual = 0.0918834, Final residual = 1.16454e-18, No Iterations 1
pyrolysis min/max(T) = 298.15, 439.198

Pyrolysis: reactingOneDim
    Total gas mass produced  [kg] = 0
    Total solid mass lost    [kg] = 0
    Total pyrolysis gases  [kg/s] = 0
    Total heat release rate [J/s] = 0

ExecutionTime = 0.06 s  ClockTime = 0 s

Courant Number mean: 0 max: 0
Time = 1

diagonal:  Solving for rho, Initial residual = 0, Final residual = 0, No Iterations 0
DILUPBiCG:  Solving for Ux, Initial residual = 1, Final residual = 0, No Iterations 1
DILUPBiCG:  Solving for Uz, Initial residual = 1, Final residual = 0, No Iterations 1
DILUPBiCG:  Solving for O2, Initial residual = 0, Final residual = 0, No Iterations 0
max of O2 = 0.23301
min of O2 = 0.23301
DILUPBiCG:  Solving for H2O, Initial residual = 0.989582, Final residual = 0, No Iterations 1
max of H2O = 0
min of H2O = -4.02808e-19
DILUPBiCG:  Solving for CH4, Initial residual = 0.99999, Final residual = 0, No Iterations 1
max of CH4 = 1.32156e-12
min of CH4 = 0
DILUPBiCG:  Solving for CO2, Initial residual = 0.992994, Final residual = 1.3494e-16, No Iterations 1
max of CO2 = 0
min of CO2 = -6.00977e-19
max of N2 = 0.76699
min of N2 = 0
DICPCG:  Solving for G, Initial residual = 1, Final residual = 1.25757e-16, No Iterations 1
DILUPBiCG:  Solving for hs, Initial residual = 1, Final residual = 0, No Iterations 1
GAMG:  Solving for p_rgh, Initial residual = 1, Final residual = 0, No Iterations 1
diagonal:  Solving for rho, Initial residual = 0, Final residual = 0, No Iterations 0
time step continuity errors : sum local = 5.47988e-14, global = 5.47988e-14, cumulative = 3.64565e-12
GAMG:  Solving for p_rgh, Initial residual = 1, Final residual = 0, No Iterations 1
diagonal:  Solving for rho, Initial residual = 0, Final residual = 0, No Iterations 0
time step continuity errors : sum local = 3.8943e-13, global = 3.8943e-13, cumulative = 4.03508e-12
DILUPBiCG:  Solving for k, Initial residual = 1, Final residual = 0, No Iterations 1

Evolving reactingOneDim for region panelRegion
diagonal:  Solving for rho, Initial residual = 0, Final residual = 0, No Iterations 0
diagonal:  Solving for Yv, Initial residual = 0, Final residual = 0, No Iterations 0
DICPCG:  Solving for T, Initial residual = 0.071806, Final residual = 1.74526e-18, No Iterations 1
pyrolysis min/max(T) = 298.15, 446.346

Pyrolysis: reactingOneDim
    Total gas mass produced  [kg] = 0
    Total solid mass lost    [kg] = 0
    Total pyrolysis gases  [kg/s] = 0
    Total heat release rate [J/s] = 0

ExecutionTime = 0.06 s  ClockTime = 0 s

Courant Number mean: 0 max: 0
Time = 1.2

diagonal:  Solving for rho, Initial residual = 0, Final residual = 0, No Iterations 0
DILUPBiCG:  Solving for Ux, Initial residual = 1, Final residual = 0, No Iterations 1
DILUPBiCG:  Solving for Uz, Initial residual = 1, Final residual = 0, No Iterations 1
DILUPBiCG:  Solving for O2, Initial residual = 0.999977, Final residual = 0, No Iterations 1
max of O2 = 0.23301
min of O2 = 0.23301
DILUPBiCG:  Solving for H2O, Initial residual = 0.991647, Final residual = 0, No Iterations 1
max of H2O = 0
min of H2O = -6.04151e-19
DILUPBiCG:  Solving for CH4, Initial residual = 0.99999, Final residual = 0, No Iterations 1
max of CH4 = 1.32008e-12
min of CH4 = 0
DILUPBiCG:  Solving for CO2, Initial residual = 0.994386, Final residual = 0, No Iterations 1
max of CO2 = 0
min of CO2 = -9.01374e-19
max of N2 = 0.76699
min of N2 = 0
DICPCG:  Solving for G, Initial residual = 1, Final residual = 1.21224e-16, No Iterations 1
DILUPBiCG:  Solving for hs, Initial residual = 1, Final residual = 0, No Iterations 1
GAMG:  Solving for p_rgh, Initial residual = 1, Final residual = 0, No Iterations 1
diagonal:  Solving for rho, Initial residual = 0, Final residual = 0, No Iterations 0
time step continuity errors : sum local = 3.12603e-13, global = 3.12603e-13, cumulative = 4.34769e-12
GAMG:  Solving for p_rgh, Initial residual = 1, Final residual = 0, No Iterations 1
diagonal:  Solving for rho, Initial residual = 0, Final residual = 0, No Iterations 0
time step continuity errors : sum local = 1.19957e-13, global = -1.19957e-13, cumulative = 4.22773e-12
DILUPBiCG:  Solving for k, Initial residual = 1, Final residual = 0, No Iterations 1

Evolving reactingOneDim for region panelRegion
diagonal:  Solving for rho, Initial residual = 0, Final residual = 0, No Iterations 0
diagonal:  Solving for Yv, Initial residual = 0, Final residual = 0, No Iterations 0
DICPCG:  Solving for T, Initial residual = 0.0593182, Final residual = 1.67984e-19, No Iterations 1
pyrolysis min/max(T) = 298.15, 453.26

Pyrolysis: reactingOneDim
    Total gas mass produced  [kg] = 0
    Total solid mass lost    [kg] = 0
    Total pyrolysis gases  [kg/s] = 0
    Total heat release rate [J/s] = 0

ExecutionTime = 0.06 s  ClockTime = 0 s

Courant Number mean: 0 max: 0
Time = 1.4

diagonal:  Solving for rho, Initial residual = 0, Final residual = 0, No Iterations 0
DILUPBiCG:  Solving for Ux, Initial residual = 1, Final residual = 0, No Iterations 1
DILUPBiCG:  Solving for Uz, Initial residual = 1, Final residual = 0, No Iterations 1
DILUPBiCG:  Solving for O2, Initial residual = 0.999955, Final residual = 0, No Iterations 1
max of O2 = 0.23301
min of O2 = 0.23301
DILUPBiCG:  Solving for H2O, Initial residual = 0.993029, Final residual = 0, No Iterations 1
max of H2O = 0
min of H2O = -8.45739e-19
DILUPBiCG:  Solving for CH4, Initial residual = 0.99999, Final residual = 0, No Iterations 1
max of CH4 = 1.31868e-12
min of CH4 = 0
DILUPBiCG:  Solving for CO2, Initial residual = 0.995317, Final residual = 0, No Iterations 1
max of CO2 = 0
min of CO2 = -1.26182e-18
max of N2 = 0.76699
min of N2 = 0
DICPCG:  Solving for G, Initial residual = 1, Final residual = 1.17185e-16, No Iterations 1
DILUPBiCG:  Solving for hs, Initial residual = 1, Final residual = 0, No Iterations 1
GAMG:  Solving for p_rgh, Initial residual = 1, Final residual = 0, No Iterations 1
diagonal:  Solving for rho, Initial residual = 0, Final residual = 0, No Iterations 0
time step continuity errors : sum local = 1.09715e-12, global = -1.09715e-12, cumulative = 3.13058e-12
GAMG:  Solving for p_rgh, Initial residual = 1, Final residual = 0, No Iterations 1
diagonal:  Solving for rho, Initial residual = 0, Final residual = 0, No Iterations 0
time step continuity errors : sum local = 6.61753e-13, global = 6.61753e-13, cumulative = 3.79234e-12
DILUPBiCG:  Solving for k, Initial residual = 1, Final residual = 0, No Iterations 1

Evolving reactingOneDim for region panelRegion
diagonal:  Solving for rho, Initial residual = 0, Final residual = 0, No Iterations 0
diagonal:  Solving for Yv, Initial residual = 0, Final residual = 0, No Iterations 0
DICPCG:  Solving for T, Initial residual = 0.0507966, Final residual = 3.23945e-19, No Iterations 1
pyrolysis min/max(T) = 298.15, 459.954

Pyrolysis: reactingOneDim
    Total gas mass produced  [kg] = 0
    Total solid mass lost    [kg] = 0
    Total pyrolysis gases  [kg/s] = 0
    Total heat release rate [J/s] = 0

ExecutionTime = 0.07 s  ClockTime = 0 s

Courant Number mean: 0 max: 0
Time = 1.6

diagonal:  Solving for rho, Initial residual = 0, Final residual = 0, No Iterations 0
DILUPBiCG:  Solving for Ux, Initial residual = 1, Final residual = 0, No Iterations 1
DILUPBiCG:  Solving for Uz, Initial residual = 1, Final residual = 1.44782e-16, No Iterations 1
DILUPBiCG:  Solving for O2, Initial residual = 0.999977, Final residual = 0, No Iterations 1
max of O2 = 0.23301
min of O2 = 0.23301
DILUPBiCG:  Solving for H2O, Initial residual = 0.994017, Final residual = 0, No Iterations 1
max of H2O = 0
min of H2O = -1.12747e-18
DILUPBiCG:  Solving for CH4, Initial residual = 0.99999, Final residual = 0, No Iterations 1
max of CH4 = 1.31737e-12
min of CH4 = 0
DILUPBiCG:  Solving for CO2, Initial residual = 0.995982, Final residual = 0, No Iterations 1
max of CO2 = 0
min of CO2 = -1.68216e-18
max of N2 = 0.76699
min of N2 = 0
DICPCG:  Solving for G, Initial residual = 1, Final residual = 1.13564e-16, No Iterations 1
DILUPBiCG:  Solving for hs, Initial residual = 1, Final residual = 0, No Iterations 1
GAMG:  Solving for p_rgh, Initial residual = 1, Final residual = 0, No Iterations 1
diagonal:  Solving for rho, Initial residual = 0, Final residual = 0, No Iterations 0
time step continuity errors : sum local = 9.38227e-13, global = 9.38227e-13, cumulative = 4.73056e-12
GAMG:  Solving for p_rgh, Initial residual = 1, Final residual = 0, No Iterations 1
diagonal:  Solving for rho, Initial residual = 0, Final residual = 0, No Iterations 0
time step continuity errors : sum local = 1.89321e-12, global = 1.89321e-12, cumulative = 6.62378e-12
DILUPBiCG:  Solving for k, Initial residual = 1, Final residual = 0, No Iterations 1

Evolving reactingOneDim for region panelRegion
diagonal:  Solving for rho, Initial residual = 0, Final residual = 0, No Iterations 0
diagonal:  Solving for Yv, Initial residual = 0, Final residual = 0, No Iterations 0
DICPCG:  Solving for T, Initial residual = 0.0446075, Final residual = 1.0267e-18, No Iterations 1
pyrolysis min/max(T) = 298.15, 466.442

Pyrolysis: reactingOneDim
    Total gas mass produced  [kg] = 0
    Total solid mass lost    [kg] = 0
    Total pyrolysis gases  [kg/s] = 0
    Total heat release rate [J/s] = 0

ExecutionTime = 0.07 s  ClockTime = 0 s

Courant Number mean: 0 max: 0
Time = 1.8

diagonal:  Solving for rho, Initial residual = 0, Final residual = 0, No Iterations 0
DILUPBiCG:  Solving for Ux, Initial residual = 1, Final residual = 0, No Iterations 1
DILUPBiCG:  Solving for Uz, Initial residual = 1, Final residual = 0, No Iterations 1
DILUPBiCG:  Solving for O2, Initial residual = 0.999955, Final residual = 0, No Iterations 1
max of O2 = 0.23301
min of O2 = 0.23301
DILUPBiCG:  Solving for H2O, Initial residual = 0.99476, Final residual = 0, No Iterations 1
max of H2O = 0
min of H2O = -1.44942e-18
DILUPBiCG:  Solving for CH4, Initial residual = 0.99999, Final residual = 0, No Iterations 1
max of CH4 = 1.31613e-12
min of CH4 = 0
DILUPBiCG:  Solving for CO2, Initial residual = 0.996482, Final residual = 0, No Iterations 1
max of CO2 = 0
min of CO2 = -2.16249e-18
max of N2 = 0.76699
min of N2 = 0
DICPCG:  Solving for G, Initial residual = 1, Final residual = 0, No Iterations 1
DILUPBiCG:  Solving for hs, Initial residual = 1, Final residual = 0, No Iterations 1
GAMG:  Solving for p_rgh, Initial residual = 1, Final residual = 0, No Iterations 1
diagonal:  Solving for rho, Initial residual = 0, Final residual = 0, No Iterations 0
time step continuity errors : sum local = 1.56501e-12, global = 1.56501e-12, cumulative = 8.18878e-12
GAMG:  Solving for p_rgh, Initial residual = 1, Final residual = 0, No Iterations 1
diagonal:  Solving for rho, Initial residual = 0, Final residual = 0, No Iterations 0
time step continuity errors : sum local = 7.55196e-13, global = 7.55196e-13, cumulative = 8.94398e-12
DILUPBiCG:  Solving for k, Initial residual = 1, Final residual = 0, No Iterations 1

Evolving reactingOneDim for region panelRegion
diagonal:  Solving for rho, Initial residual = 0, Final residual = 0, No Iterations 0
diagonal:  Solving for Yv, Initial residual = 0, Final residual = 0, No Iterations 0
DICPCG:  Solving for T, Initial residual = 0.0398979, Final residual = 7.48694e-18, No Iterations 1
pyrolysis min/max(T) = 298.15, 472.734

Pyrolysis: reactingOneDim
    Total gas mass produced  [kg] = 0
    Total solid mass lost    [kg] = 0
    Total pyrolysis gases  [kg/s] = 0
    Total heat release rate [J/s] = 0

ExecutionTime = 0.08 s  ClockTime = 0 s

Courant Number mean: 0 max: 0
Time = 2

diagonal:  Solving for rho, Initial residual = 0, Final residual = 0, No Iterations 0
DILUPBiCG:  Solving for Ux, Initial residual = 1, Final residual = 0, No Iterations 1
DILUPBiCG:  Solving for Uz, Initial residual = 1, Final residual = 0, No Iterations 1
DILUPBiCG:  Solving for O2, Initial residual = 0.999955, Final residual = 0, No Iterations 1
max of O2 = 0.23301
min of O2 = 0.23301
DILUPBiCG:  Solving for H2O, Initial residual = 0.995339, Final residual = 0, No Iterations 1
max of H2O = 0
min of H2O = -1.8116e-18
DILUPBiCG:  Solving for CH4, Initial residual = 0.99999, Final residual = 0, No Iterations 1
max of CH4 = 1.31497e-12
min of CH4 = 0
DILUPBiCG:  Solving for CO2, Initial residual = 0.996871, Final residual = 1.20522e-16, No Iterations 1
max of CO2 = 0
min of CO2 = -2.70284e-18
max of N2 = 0.76699
min of N2 = 0
DICPCG:  Solving for G, Initial residual = 1, Final residual = 0, No Iterations 1
DILUPBiCG:  Solving for hs, Initial residual = 1, Final residual = 0, No Iterations 1
GAMG:  Solving for p_rgh, Initial residual = 1, Final residual = 0, No Iterations 1
diagonal:  Solving for rho, Initial residual = 0, Final residual = 0, No Iterations 0
time step continuity errors : sum local = 1.0138e-12, global = 1.0138e-12, cumulative = 9.95778e-12
GAMG:  Solving for p_rgh, Initial residual = 1, Final residual = 0, No Iterations 1
diagonal:  Solving for rho, Initial residual = 0, Final residual = 0, No Iterations 0
time step continuity errors : sum local = 1.63097e-13, global = 1.63097e-13, cumulative = 1.01209e-11
DILUPBiCG:  Solving for k, Initial residual = 1, Final residual = 0, No Iterations 1

Evolving reactingOneDim for region panelRegion
diagonal:  Solving for rho, Initial residual = 0, Final residual = 0, No Iterations 0
diagonal:  Solving for Yv, Initial residual = 0, Final residual = 0, No Iterations 0
DICPCG:  Solving for T, Initial residual = 0.0359784, Final residual = 5.15204e-18, No Iterations 1
pyrolysis min/max(T) = 298.15, 478.844

Pyrolysis: reactingOneDim
    Total gas mass produced  [kg] = 0
    Total solid mass lost    [kg] = 0
    Total pyrolysis gases  [kg/s] = 0
    Total heat release rate [J/s] = 0

ExecutionTime = 0.08 s  ClockTime = 0 s

Courant Number mean: 0 max: 0
Time = 2.2

diagonal:  Solving for rho, Initial residual = 0, Final residual = 0, No Iterations 0
DILUPBiCG:  Solving for Ux, Initial residual = 1, Final residual = 0, No Iterations 1
DILUPBiCG:  Solving for Uz, Initial residual = 1, Final residual = 0, No Iterations 1
DILUPBiCG:  Solving for O2, Initial residual = 0, Final residual = 0, No Iterations 0
max of O2 = 0.23301
min of O2 = 0.23301
DILUPBiCG:  Solving for H2O, Initial residual = 0.995805, Final residual = 0, No Iterations 1
max of H2O = -2.21429e-18
min of H2O = -2.21429e-18
DILUPBiCG:  Solving for CH4, Initial residual = 0.99999, Final residual = 0, No Iterations 1
max of CH4 = 1.31387e-12
min of CH4 = 1.8643e-15
DILUPBiCG:  Solving for CO2, Initial residual = 0.997184, Final residual = 0, No Iterations 1
max of CO2 = -3.30365e-18
min of CO2 = -3.30365e-18
max of N2 = 0.76699
min of N2 = 0
DICPCG:  Solving for G, Initial residual = 1, Final residual = 0, No Iterations 1
DILUPBiCG:  Solving for hs, Initial residual = 1, Final residual = 1.26364e-16, No Iterations 1
GAMG:  Solving for p_rgh, Initial residual = 1, Final residual = 0, No Iterations 1
diagonal:  Solving for rho, Initial residual = 0, Final residual = 0, No Iterations 0
time step continuity errors : sum local = 1.35416e-12, global = 1.35416e-12, cumulative = 1.1475e-11
GAMG:  Solving for p_rgh, Initial residual = 1, Final residual = 0, No Iterations 1
diagonal:  Solving for rho, Initial residual = 0, Final residual = 0, No Iterations 0
time step continuity errors : sum local = 7.57878e-13, global = 7.57878e-13, cumulative = 1.22329e-11
DILUPBiCG:  Solving for k, Initial residual = 1, Final residual = 0, No Iterations 1

Evolving reactingOneDim for region panelRegion
diagonal:  Solving for rho, Initial residual = 0, Final residual = 0, No Iterations 0
diagonal:  Solving for Yv, Initial residual = 0, Final residual = 0, No Iterations 0
DICPCG:  Solving for T, Initial residual = 0.0328174, Final residual = 1.51867e-18, No Iterations 1
pyrolysis min/max(T) = 298.15, 484.78

Pyrolysis: reactingOneDim
    Total gas mass produced  [kg] = 0
    Total solid mass lost    [kg] = 0
    Total pyrolysis gases  [kg/s] = 0
    Total heat release rate [J/s] = 0

ExecutionTime = 0.08 s  ClockTime = 0 s

Courant Number mean: 0 max: 0
Time = 2.4

diagonal:  Solving for rho, Initial residual = 0, Final residual = 0, No Iterations 0
DILUPBiCG:  Solving for Ux, Initial residual = 1, Final residual = 0, No Iterations 1
DILUPBiCG:  Solving for Uz, Initial residual = 1, Final residual = 0, No Iterations 1
DILUPBiCG:  Solving for O2, Initial residual = 0.999955, Final residual = 0, No Iterations 1
max of O2 = 0.23301
min of O2 = 0.23301
DILUPBiCG:  Solving for H2O, Initial residual = 0.996182, Final residual = 0, No Iterations 1
max of H2O = 0
min of H2O = -2.6569e-18
DILUPBiCG:  Solving for CH4, Initial residual = 0.99999, Final residual = 0, No Iterations 1
max of CH4 = 1.31284e-12
min of CH4 = 0
DILUPBiCG:  Solving for CO2, Initial residual = 0.997438, Final residual = 0, No Iterations 1
max of CO2 = 0
min of CO2 = -3.96402e-18
max of N2 = 0.76699
min of N2 = 0
DICPCG:  Solving for G, Initial residual = 1, Final residual = 0, No Iterations 1
DILUPBiCG:  Solving for hs, Initial residual = 1, Final residual = 1.15981e-16, No Iterations 1
GAMG:  Solving for p_rgh, Initial residual = 1, Final residual = 0, No Iterations 1
diagonal:  Solving for rho, Initial residual = 0, Final residual = 0, No Iterations 0
time step continuity errors : sum local = 7.18917e-13, global = -7.18917e-13, cumulative = 1.1514e-11
GAMG:  Solving for p_rgh, Initial residual = 1, Final residual = 0, No Iterations 1
diagonal:  Solving for rho, Initial residual = 0, Final residual = 0, No Iterations 0
time step continuity errors : sum local = 3.27157e-13, global = -3.27157e-13, cumulative = 1.11868e-11
DILUPBiCG:  Solving for k, Initial residual = 1, Final residual = 0, No Iterations 1

Evolving reactingOneDim for region panelRegion
diagonal:  Solving for rho, Initial residual = 0, Final residual = 0, No Iterations 0
diagonal:  Solving for Yv, Initial residual = 0, Final residual = 0, No Iterations 0
DICPCG:  Solving for T, Initial residual = 0.0300958, Final residual = 7.51278e-22, No Iterations 1
pyrolysis min/max(T) = 298.15, 490.554

Pyrolysis: reactingOneDim
    Total gas mass produced  [kg] = 0
    Total solid mass lost    [kg] = 0
    Total pyrolysis gases  [kg/s] = 0
    Total heat release rate [J/s] = 0

ExecutionTime = 0.09 s  ClockTime = 0 s

Courant Number mean: 0 max: 0
Time = 2.6

diagonal:  Solving for rho, Initial residual = 0, Final residual = 0, No Iterations 0
DILUPBiCG:  Solving for Ux, Initial residual = 1, Final residual = 0, No Iterations 1
DILUPBiCG:  Solving for Uz, Initial residual = 1, Final residual = 0, No Iterations 1
DILUPBiCG:  Solving for O2, Initial residual = 0.999977, Final residual = 0, No Iterations 1
max of O2 = 0.23301
min of O2 = 0.23301
DILUPBiCG:  Solving for H2O, Initial residual = 0.996498, Final residual = 0, No Iterations 1
max of H2O = 0
min of H2O = -3.13953e-18
DILUPBiCG:  Solving for CH4, Initial residual = 0.99999, Final residual = 0, No Iterations 1
max of CH4 = 1.31187e-12
min of CH4 = 0
DILUPBiCG:  Solving for CO2, Initial residual = 0.99765, Final residual = 0, No Iterations 1
max of CO2 = 0
min of CO2 = -4.68409e-18
max of N2 = 0.76699
min of N2 = 0
DICPCG:  Solving for G, Initial residual = 1, Final residual = 0, No Iterations 1
DILUPBiCG:  Solving for hs, Initial residual = 1, Final residual = 0, No Iterations 1
GAMG:  Solving for p_rgh, Initial residual = 1, Final residual = 0, No Iterations 1
diagonal:  Solving for rho, Initial residual = 0, Final residual = 0, No Iterations 0
time step continuity errors : sum local = 6.87489e-13, global = 6.87489e-13, cumulative = 1.18743e-11
GAMG:  Solving for p_rgh, Initial residual = 1, Final residual = 0, No Iterations 1
diagonal:  Solving for rho, Initial residual = 0, Final residual = 0, No Iterations 0
time step continuity errors : sum local = 2.30921e-13, global = 2.30921e-13, cumulative = 1.21053e-11
DILUPBiCG:  Solving for k, Initial residual = 1, Final residual = 0, No Iterations 1

Evolving reactingOneDim for region panelRegion
diagonal:  Solving for rho, Initial residual = 0, Final residual = 0, No Iterations 0
diagonal:  Solving for Yv, Initial residual = 0, Final residual = 0, No Iterations 0
DICPCG:  Solving for T, Initial residual = 0.0277565, Final residual = 3.79872e-18, No Iterations 1
pyrolysis min/max(T) = 298.15, 496.173

Pyrolysis: reactingOneDim
    Total gas mass produced  [kg] = 0
    Total solid mass lost    [kg] = 0
    Total pyrolysis gases  [kg/s] = 0
    Total heat release rate [J/s] = 0

ExecutionTime = 0.09 s  ClockTime = 0 s

Courant Number mean: 0 max: 0
Time = 2.8

diagonal:  Solving for rho, Initial residual = 0, Final residual = 0, No Iterations 0
DILUPBiCG:  Solving for Ux, Initial residual = 1, Final residual = 0, No Iterations 1
DILUPBiCG:  Solving for Uz, Initial residual = 1, Final residual = 0, No Iterations 1
DILUPBiCG:  Solving for O2, Initial residual = 0.999977, Final residual = 0, No Iterations 1
max of O2 = 0.23301
min of O2 = 0.23301
DILUPBiCG:  Solving for H2O, Initial residual = 0.996769, Final residual = 0, No Iterations 1
max of H2O = -3.66298e-18
min of H2O = -3.66298e-18
DILUPBiCG:  Solving for CH4, Initial residual = 0.99999, Final residual = 0, No Iterations 1
max of CH4 = 1.31095e-12
min of CH4 = 2.37251e-15
DILUPBiCG:  Solving for CO2, Initial residual = 0.997832, Final residual = 0, No Iterations 1
max of CO2 = -5.46506e-18
min of CO2 = -5.46506e-18
max of N2 = 0.76699
min of N2 = 0
DICPCG:  Solving for G, Initial residual = 1, Final residual = 0, No Iterations 1
DILUPBiCG:  Solving for hs, Initial residual = 1, Final residual = 0, No Iterations 1
GAMG:  Solving for p_rgh, Initial residual = 1, Final residual = 0, No Iterations 1
diagonal:  Solving for rho, Initial residual = 0, Final residual = 0, No Iterations 0
time step continuity errors : sum local = 8.05618e-13, global = 8.05618e-13, cumulative = 1.29109e-11
GAMG:  Solving for p_rgh, Initial residual = 1, Final residual = 0, No Iterations 1
diagonal:  Solving for rho, Initial residual = 0, Final residual = 0, No Iterations 0
time step continuity errors : sum local = 3.75026e-13, global = 3.75026e-13, cumulative = 1.32859e-11
DILUPBiCG:  Solving for k, Initial residual = 1, Final residual = 0, No Iterations 1

Evolving reactingOneDim for region panelRegion
diagonal:  Solving for rho, Initial residual = 0, Final residual = 0, No Iterations 0
diagonal:  Solving for Yv, Initial residual = 0, Final residual = 0, No Iterations 0
DICPCG:  Solving for T, Initial residual = 0.0257723, Final residual = 2.97381e-18, No Iterations 1
pyrolysis min/max(T) = 298.15, 501.646

Pyrolysis: reactingOneDim
    Total gas mass produced  [kg] = 0
    Total solid mass lost    [kg] = 0
    Total pyrolysis gases  [kg/s] = 0
    Total heat release rate [J/s] = 0

ExecutionTime = 0.1 s  ClockTime = 0 s

Courant Number mean: 0 max: 0
Time = 3

diagonal:  Solving for rho, Initial residual = 0, Final residual = 0, No Iterations 0
DILUPBiCG:  Solving for Ux, Initial residual = 1, Final residual = 0, No Iterations 1
DILUPBiCG:  Solving for Uz, Initial residual = 1, Final residual = 0, No Iterations 1
DILUPBiCG:  Solving for O2, Initial residual = 0.999977, Final residual = 0, No Iterations 1
max of O2 = 0.23301
min of O2 = 0.23301
DILUPBiCG:  Solving for H2O, Initial residual = 0.997, Final residual = 1.15571e-16, No Iterations 1
max of H2O = -4.22675e-18
min of H2O = -4.22675e-18
DILUPBiCG:  Solving for CH4, Initial residual = 0.99999, Final residual = 0, No Iterations 1
max of CH4 = 1.31008e-12
min of CH4 = 2.54217e-15
DILUPBiCG:  Solving for CO2, Initial residual = 0.997987, Final residual = 0, No Iterations 1
max of CO2 = -6.30618e-18
min of CO2 = -6.30618e-18
max of N2 = 0.76699
min of N2 = 0
DICPCG:  Solving for G, Initial residual = 1, Final residual = 0, No Iterations 1
DILUPBiCG:  Solving for hs, Initial residual = 1, Final residual = 0, No Iterations 1
GAMG:  Solving for p_rgh, Initial residual = 1, Final residual = 0, No Iterations 1
diagonal:  Solving for rho, Initial residual = 0, Final residual = 0, No Iterations 0
time step continuity errors : sum local = 3.59973e-13, global = 3.59973e-13, cumulative = 1.36459e-11
GAMG:  Solving for p_rgh, Initial residual = 1, Final residual = 0, No Iterations 1
diagonal:  Solving for rho, Initial residual = 0, Final residual = 0, No Iterations 0
time step continuity errors : sum local = 4.73559e-13, global = -4.73559e-13, cumulative = 1.31723e-11
DILUPBiCG:  Solving for k, Initial residual = 1, Final residual = 0, No Iterations 1

Evolving reactingOneDim for region panelRegion
diagonal:  Solving for rho, Initial residual = 0, Final residual = 0, No Iterations 0
diagonal:  Solving for Yv, Initial residual = 0, Final residual = 0, No Iterations 0
DICPCG:  Solving for T, Initial residual = 0.0240684, Final residual = 3.91257e-18, No Iterations 1
pyrolysis min/max(T) = 298.15, 506.98

Pyrolysis: reactingOneDim
    Total gas mass produced  [kg] = 0
    Total solid mass lost    [kg] = 0
    Total pyrolysis gases  [kg/s] = 0
    Total heat release rate [J/s] = 0

ExecutionTime = 0.1 s  ClockTime = 0 s

Courant Number mean: 0 max: 0
Time = 3.2

diagonal:  Solving for rho, Initial residual = 0, Final residual = 0, No Iterations 0
DILUPBiCG:  Solving for Ux, Initial residual = 1, Final residual = 0, No Iterations 1
DILUPBiCG:  Solving for Uz, Initial residual = 1, Final residual = 0, No Iterations 1
DILUPBiCG:  Solving for O2, Initial residual = 0.999955, Final residual = 0, No Iterations 1
max of O2 = 0.23301
min of O2 = 0.23301
DILUPBiCG:  Solving for H2O, Initial residual = 0.997199, Final residual = 0, No Iterations 1
max of H2O = -4.83082e-18
min of H2O = -4.83082e-18
DILUPBiCG:  Solving for CH4, Initial residual = 0.99999, Final residual = 0, No Iterations 1
max of CH4 = 1.30927e-12
min of CH4 = 2.71184e-15
DILUPBiCG:  Solving for CO2, Initial residual = 0.998121, Final residual = 1.44754e-16, No Iterations 1
max of CO2 = -7.20744e-18
min of CO2 = -7.20744e-18
max of N2 = 0.76699
min of N2 = 0
DICPCG:  Solving for G, Initial residual = 1, Final residual = 0, No Iterations 1
DILUPBiCG:  Solving for hs, Initial residual = 1, Final residual = 0, No Iterations 1
GAMG:  Solving for p_rgh, Initial residual = 1, Final residual = 0, No Iterations 1
diagonal:  Solving for rho, Initial residual = 0, Final residual = 0, No Iterations 0
time step continuity errors : sum local = 5.81897e-13, global = -5.81897e-13, cumulative = 1.25904e-11
GAMG:  Solving for p_rgh, Initial residual = 1, Final residual = 0, No Iterations 1
diagonal:  Solving for rho, Initial residual = 0, Final residual = 0, No Iterations 0
time step continuity errors : sum local = 1.03476e-12, global = -1.03476e-12, cumulative = 1.15557e-11
DILUPBiCG:  Solving for k, Initial residual = 1, Final residual = 0, No Iterations 1

Evolving reactingOneDim for region panelRegion
diagonal:  Solving for rho, Initial residual = 0, Final residual = 0, No Iterations 0
diagonal:  Solving for Yv, Initial residual = 0, Final residual = 0, No Iterations 0
DICPCG:  Solving for T, Initial residual = 0.0225897, Final residual = 2.66034e-19, No Iterations 1
pyrolysis min/max(T) = 298.15, 512.182

Pyrolysis: reactingOneDim
    Total gas mass produced  [kg] = 0
    Total solid mass lost    [kg] = 0
    Total pyrolysis gases  [kg/s] = 0
    Total heat release rate [J/s] = 0

ExecutionTime = 0.1 s  ClockTime = 0 s

Courant Number mean: 0 max: 0
Time = 3.4

diagonal:  Solving for rho, Initial residual = 0, Final residual = 0, No Iterations 0
DILUPBiCG:  Solving for Ux, Initial residual = 1, Final residual = 0, No Iterations 1
DILUPBiCG:  Solving for Uz, Initial residual = 1, Final residual = 0, No Iterations 1
DILUPBiCG:  Solving for O2, Initial residual = 0.999955, Final residual = 0, No Iterations 1
max of O2 = 0.23301
min of O2 = 0.23301
DILUPBiCG:  Solving for H2O, Initial residual = 0.997374, Final residual = 0, No Iterations 1
max of H2O = -5.47522e-18
min of H2O = -5.47522e-18
DILUPBiCG:  Solving for CH4, Initial residual = 0.99999, Final residual = 0, No Iterations 1
max of CH4 = 1.3085e-12
min of CH4 = 2.88152e-15
DILUPBiCG:  Solving for CO2, Initial residual = 0.998238, Final residual = 1.3572e-16, No Iterations 1
max of CO2 = -8.16885e-18
min of CO2 = -8.16885e-18
max of N2 = 0.76699
min of N2 = 0
DICPCG:  Solving for G, Initial residual = 1, Final residual = 0, No Iterations 1
DILUPBiCG:  Solving for hs, Initial residual = 1, Final residual = 0, No Iterations 1
GAMG:  Solving for p_rgh, Initial residual = 1, Final residual = 0, No Iterations 1
diagonal:  Solving for rho, Initial residual = 0, Final residual = 0, No Iterations 0
time step continuity errors : sum local = 1.37108e-12, global = 1.37108e-12, cumulative = 1.29267e-11
GAMG:  Solving for p_rgh, Initial residual = 1, Final residual = 0, No Iterations 1
diagonal:  Solving for rho, Initial residual = 0, Final residual = 0, No Iterations 0
time step continuity errors : sum local = 5.11469e-13, global = -5.11469e-13, cumulative = 1.24153e-11
DILUPBiCG:  Solving for k, Initial residual = 1, Final residual = 0, No Iterations 1

Evolving reactingOneDim for region panelRegion
diagonal:  Solving for rho, Initial residual = 0, Final residual = 0, No Iterations 0
diagonal:  Solving for Yv, Initial residual = 0, Final residual = 0, No Iterations 0
DICPCG:  Solving for T, Initial residual = 0.0212916, Final residual = 3.95977e-18, No Iterations 1
pyrolysis min/max(T) = 298.15, 517.258

Pyrolysis: reactingOneDim
    Total gas mass produced  [kg] = 1.8533e-07
    Total solid mass lost    [kg] = -1.8533e-07
    Total pyrolysis gases  [kg/s] = 9.26648e-07
    Total heat release rate [J/s] = -1.45217

ExecutionTime = 0.11 s  ClockTime = 0 s

Courant Number mean: 0 max: 0
Time = 3.6

diagonal:  Solving for rho, Initial residual = 0, Final residual = 0, No Iterations 0
DILUPBiCG:  Solving for Ux, Initial residual = 1, Final residual = 0, No Iterations 1
DILUPBiCG:  Solving for Uz, Initial residual = 1, Final residual = 1.19593e-16, No Iterations 1
DILUPBiCG:  Solving for O2, Initial residual = 0.999955, Final residual = 0, No Iterations 1
max of O2 = 0.23301
min of O2 = 0.23301
DILUPBiCG:  Solving for H2O, Initial residual = 0.997528, Final residual = 0, No Iterations 1
max of H2O = -6.15992e-18
min of H2O = -6.15992e-18
DILUPBiCG:  Solving for CH4, Initial residual = 0.99999, Final residual = 0, No Iterations 1
max of CH4 = 1.30777e-12
min of CH4 = 3.0512e-15
DILUPBiCG:  Solving for CO2, Initial residual = 0.998342, Final residual = 1.27748e-16, No Iterations 1
max of CO2 = -9.19042e-18
min of CO2 = -9.19042e-18
max of N2 = 0.76699
min of N2 = 0
DICPCG:  Solving for G, Initial residual = 1, Final residual = 0, No Iterations 1
DILUPBiCG:  Solving for hs, Initial residual = 1, Final residual = 0, No Iterations 1
GAMG:  Solving for p_rgh, Initial residual = 1, Final residual = 0, No Iterations 1
diagonal:  Solving for rho, Initial residual = 0, Final residual = 0, No Iterations 0
time step continuity errors : sum local = 1.43934e-13, global = 1.43934e-13, cumulative = 1.25592e-11
GAMG:  Solving for p_rgh, Initial residual = 1, Final residual = 0, No Iterations 1
diagonal:  Solving for rho, Initial residual = 0, Final residual = 0, No Iterations 0
time step continuity errors : sum local = 4.33499e-13, global = 4.33499e-13, cumulative = 1.29927e-11
DILUPBiCG:  Solving for k, Initial residual = 1, Final residual = 0, No Iterations 1

Evolving reactingOneDim for region panelRegion
diagonal:  Solving for rho, Initial residual = 0, Final residual = 0, No Iterations 0
diagonal:  Solving for Yv, Initial residual = 0, Final residual = 0, No Iterations 0
DICPCG:  Solving for T, Initial residual = 0.0201467, Final residual = 9.30609e-19, No Iterations 1
pyrolysis min/max(T) = 298.15, 522.214

Pyrolysis: reactingOneDim
    Total gas mass produced  [kg] = 4.85295e-07
    Total solid mass lost    [kg] = -4.85295e-07
    Total pyrolysis gases  [kg/s] = 1.49983e-06
    Total heat release rate [J/s] = -2.35041

ExecutionTime = 0.11 s  ClockTime = 0 s

Courant Number mean: 0 max: 0
Time = 3.8

diagonal:  Solving for rho, Initial residual = 0, Final residual = 0, No Iterations 0
DILUPBiCG:  Solving for Ux, Initial residual = 1, Final residual = 0, No Iterations 1
DILUPBiCG:  Solving for Uz, Initial residual = 1, Final residual = 0, No Iterations 1
DILUPBiCG:  Solving for O2, Initial residual = 1, Final residual = 0, No Iterations 1
max of O2 = 0.23301
min of O2 = 0.232729
DILUPBiCG:  Solving for H2O, Initial residual = 0.997665, Final residual = 0, No Iterations 1
max of H2O = -6.87664e-18
min of H2O = -6.88495e-18
DILUPBiCG:  Solving for CH4, Initial residual = 1, Final residual = 0, No Iterations 1
max of CH4 = 0.00120692
min of CH4 = 1.57245e-07
DILUPBiCG:  Solving for CO2, Initial residual = 0.998434, Final residual = 0, No Iterations 1
max of CO2 = -1.02597e-17
min of CO2 = -1.02721e-17
max of N2 = 0.76699
min of N2 = 0
DICPCG:  Solving for G, Initial residual = 1, Final residual = 0, No Iterations 1
DILUPBiCG:  Solving for hs, Initial residual = 1, Final residual = 0, No Iterations 1
GAMG:  Solving for p_rgh, Initial residual = 1, Final residual = 0, No Iterations 1
diagonal:  Solving for rho, Initial residual = 0, Final residual = 0, No Iterations 0
time step continuity errors : sum local = 3.18218e-13, global = -3.18218e-13, cumulative = 1.26745e-11
GAMG:  Solving for p_rgh, Initial residual = 1, Final residual = 0, No Iterations 1
diagonal:  Solving for rho, Initial residual = 0, Final residual = 0, No Iterations 0
time step continuity errors : sum local = 7.32523e-13, global = -7.32523e-13, cumulative = 1.1942e-11
DILUPBiCG:  Solving for k, Initial residual = 1, Final residual = 0, No Iterations 1

Evolving reactingOneDim for region panelRegion
diagonal:  Solving for rho, Initial residual = 0, Final residual = 0, No Iterations 0
diagonal:  Solving for Yv, Initial residual = 0, Final residual = 0, No Iterations 0
DICPCG:  Solving for T, Initial residual = 0.0191276, Final residual = 9.46377e-19, No Iterations 1
pyrolysis min/max(T) = 298.15, 527.056

Pyrolysis: reactingOneDim
    Total gas mass produced  [kg] = 9.59966e-07
    Total solid mass lost    [kg] = -9.59966e-07
    Total pyrolysis gases  [kg/s] = 2.37336e-06
    Total heat release rate [J/s] = -3.71934

ExecutionTime = 0.12 s  ClockTime = 0 s

Courant Number mean: 0 max: 0
Time = 4

diagonal:  Solving for rho, Initial residual = 0, Final residual = 0, No Iterations 0
DILUPBiCG:  Solving for Ux, Initial residual = 1, Final residual = 0, No Iterations 1
DILUPBiCG:  Solving for Uz, Initial residual = 1, Final residual = 0, No Iterations 1
DILUPBiCG:  Solving for O2, Initial residual = 1, Final residual = 0, No Iterations 1
max of O2 = 0.23301
min of O2 = 0.232555
DILUPBiCG:  Solving for H2O, Initial residual = 1, Final residual = 0, No Iterations 1
max of H2O = -2.48437e-11
min of H2O = -2.48922e-11
DILUPBiCG:  Solving for CH4, Initial residual = 1, Final residual = 0, No Iterations 1
max of CH4 = 0.00195086
min of CH4 = 4.1176e-07
DILUPBiCG:  Solving for CO2, Initial residual = 1, Final residual = 0, No Iterations 1
max of CO2 = -3.70657e-11
min of CO2 = -3.71381e-11
max of N2 = 0.76699
min of N2 = 0
DICPCG:  Solving for G, Initial residual = 1, Final residual = 0, No Iterations 1
DILUPBiCG:  Solving for hs, Initial residual = 1, Final residual = 1.41586e-16, No Iterations 1
GAMG:  Solving for p_rgh, Initial residual = 1, Final residual = 0, No Iterations 1
diagonal:  Solving for rho, Initial residual = 0, Final residual = 0, No Iterations 0
time step continuity errors : sum local = 8.3902e-13, global = -8.3902e-13, cumulative = 1.11029e-11
GAMG:  Solving for p_rgh, Initial residual = 1, Final residual = 0, No Iterations 1
diagonal:  Solving for rho, Initial residual = 0, Final residual = 0, No Iterations 0
time step continuity errors : sum local = 1.79919e-12, global = -1.79919e-12, cumulative = 9.30374e-12
DILUPBiCG:  Solving for k, Initial residual = 1, Final residual = 0, No Iterations 1

Evolving reactingOneDim for region panelRegion
diagonal:  Solving for rho, Initial residual = 0, Final residual = 0, No Iterations 0
diagonal:  Solving for Yv, Initial residual = 0, Final residual = 0, No Iterations 0
DICPCG:  Solving for T, Initial residual = 0.0182145, Final residual = 1.10211e-18, No Iterations 1
pyrolysis min/max(T) = 298.151, 531.789

Pyrolysis: reactingOneDim
    Total gas mass produced  [kg] = 1.69554e-06
    Total solid mass lost    [kg] = -1.69554e-06
    Total pyrolysis gases  [kg/s] = 3.67786e-06
    Total heat release rate [J/s] = -5.76366

ExecutionTime = 0.12 s  ClockTime = 0 s

Courant Number mean: 0 max: 0
Time = 4.2

diagonal:  Solving for rho, Initial residual = 0, Final residual = 0, No Iterations 0
DILUPBiCG:  Solving for Ux, Initial residual = 1, Final residual = 1.43076e-16, No Iterations 1
DILUPBiCG:  Solving for Uz, Initial residual = 1, Final residual = 0, No Iterations 1
DILUPBiCG:  Solving for O2, Initial residual = 1, Final residual = 0, No Iterations 1
max of O2 = 0.23301
min of O2 = 0.232292
DILUPBiCG:  Solving for H2O, Initial residual = 1, Final residual = 0, No Iterations 1
max of H2O = -3.70983e-11
min of H2O = -3.7213e-11
DILUPBiCG:  Solving for CH4, Initial residual = 1, Final residual = 0, No Iterations 1
max of CH4 = 0.00308179
min of CH4 = 8.1451e-07
DILUPBiCG:  Solving for CO2, Initial residual = 1, Final residual = 0, No Iterations 1
max of CO2 = -5.53481e-11
min of CO2 = -5.55192e-11
max of N2 = 0.76699
min of N2 = 0
DICPCG:  Solving for G, Initial residual = 1, Final residual = 0, No Iterations 1
DILUPBiCG:  Solving for hs, Initial residual = 1, Final residual = 0, No Iterations 1
GAMG:  Solving for p_rgh, Initial residual = 1, Final residual = 0, No Iterations 1
diagonal:  Solving for rho, Initial residual = 0, Final residual = 0, No Iterations 0
time step continuity errors : sum local = 2.7454e-13, global = -2.7454e-13, cumulative = 9.0292e-12
GAMG:  Solving for p_rgh, Initial residual = 1, Final residual = 0, No Iterations 1
diagonal:  Solving for rho, Initial residual = 0, Final residual = 0, No Iterations 0
time step continuity errors : sum local = 2.40434e-13, global = -2.40434e-13, cumulative = 8.78877e-12
DILUPBiCG:  Solving for k, Initial residual = 1, Final residual = 1.62957e-16, No Iterations 1

Evolving reactingOneDim for region panelRegion
diagonal:  Solving for rho, Initial residual = 0, Final residual = 0, No Iterations 0
diagonal:  Solving for Yv, Initial residual = 0, Final residual = 0, No Iterations 0
DICPCG:  Solving for T, Initial residual = 0.0173911, Final residual = 4.6641e-19, No Iterations 1
pyrolysis min/max(T) = 298.151, 536.415

Pyrolysis: reactingOneDim
    Total gas mass produced  [kg] = 2.81345e-06
    Total solid mass lost    [kg] = -2.81345e-06
    Total pyrolysis gases  [kg/s] = 5.58955e-06
    Total heat release rate [J/s] = -8.7595

ExecutionTime = 0.13 s  ClockTime = 0 s

Courant Number mean: 0 max: 0
Time = 4.4

diagonal:  Solving for rho, Initial residual = 0, Final residual = 0, No Iterations 0
DILUPBiCG:  Solving for Ux, Initial residual = 1, Final residual = 0, No Iterations 1
DILUPBiCG:  Solving for Uz, Initial residual = 1, Final residual = 0, No Iterations 1
DILUPBiCG:  Solving for O2, Initial residual = 1, Final residual = 1.22659e-16, No Iterations 1
max of O2 = 0.23301
min of O2 = 0.2319
DILUPBiCG:  Solving for H2O, Initial residual = 1, Final residual = 1.2436e-16, No Iterations 1
max of H2O = 1.03873e-10
min of H2O = 1.03378e-10
DILUPBiCG:  Solving for CH4, Initial residual = 1, Final residual = 0, No Iterations 1
max of CH4 = 0.00476484
min of CH4 = 1.4386e-06
DILUPBiCG:  Solving for CO2, Initial residual = 1, Final residual = 0, No Iterations 1
max of CO2 = 1.5497e-10
min of CO2 = 1.54232e-10
max of N2 = 0.766989
min of N2 = 0
DICPCG:  Solving for G, Initial residual = 1, Final residual = 0, No Iterations 1
DILUPBiCG:  Solving for hs, Initial residual = 1, Final residual = 0, No Iterations 1
GAMG:  Solving for p_rgh, Initial residual = 1, Final residual = 0, No Iterations 1
diagonal:  Solving for rho, Initial residual = 0, Final residual = 0, No Iterations 0
time step continuity errors : sum local = 3.67646e-13, global = -3.67646e-13, cumulative = 8.42112e-12
GAMG:  Solving for p_rgh, Initial residual = 1, Final residual = 0, No Iterations 1
diagonal:  Solving for rho, Initial residual = 0, Final residual = 0, No Iterations 0
time step continuity errors : sum local = 5.55709e-13, global = -5.55709e-13, cumulative = 7.86541e-12
DILUPBiCG:  Solving for k, Initial residual = 1, Final residual = 0, No Iterations 1

Evolving reactingOneDim for region panelRegion
diagonal:  Solving for rho, Initial residual = 0, Final residual = 0, No Iterations 0
diagonal:  Solving for Yv, Initial residual = 0, Final residual = 0, No Iterations 0
DICPCG:  Solving for T, Initial residual = 0.0166441, Final residual = 9.78341e-19, No Iterations 1
pyrolysis min/max(T) = 298.151, 540.94

Pyrolysis: reactingOneDim
    Total gas mass produced  [kg] = 4.48185e-06
    Total solid mass lost    [kg] = -4.48185e-06
    Total pyrolysis gases  [kg/s] = 8.34203e-06
    Total heat release rate [J/s] = -13.073

ExecutionTime = 0.13 s  ClockTime = 0 s

Courant Number mean: 0 max: 0
Time = 4.6

diagonal:  Solving for rho, Initial residual = 0, Final residual = 0, No Iterations 0
DILUPBiCG:  Solving for Ux, Initial residual = 1, Final residual = 0, No Iterations 1
DILUPBiCG:  Solving for Uz, Initial residual = 1, Final residual = 0, No Iterations 1
DILUPBiCG:  Solving for O2, Initial residual = 1, Final residual = 0, No Iterations 1
max of O2 = 0.233009
min of O2 = 0.231328
DILUPBiCG:  Solving for H2O, Initial residual = 1, Final residual = 0, No Iterations 1
max of H2O = 8.05851e-10
min of H2O = 8.00035e-10
DILUPBiCG:  Solving for CH4, Initial residual = 1, Final residual = 0, No Iterations 1
max of CH4 = 0.00721936
min of CH4 = 2.38698e-06
DILUPBiCG:  Solving for CO2, Initial residual = 1, Final residual = 0, No Iterations 1
max of CO2 = 1.20221e-09
min of CO2 = 1.19354e-09
max of N2 = 0.766989
min of N2 = 0
DICPCG:  Solving for G, Initial residual = 1, Final residual = 0, No Iterations 1
DILUPBiCG:  Solving for hs, Initial residual = 1, Final residual = 1.20778e-16, No Iterations 1
GAMG:  Solving for p_rgh, Initial residual = 1, Final residual = 0, No Iterations 1
diagonal:  Solving for rho, Initial residual = 0, Final residual = 0, No Iterations 0
time step continuity errors : sum local = 1.52647e-13, global = -1.52647e-13, cumulative = 7.71277e-12
GAMG:  Solving for p_rgh, Initial residual = 1, Final residual = 0, No Iterations 1
diagonal:  Solving for rho, Initial residual = 0, Final residual = 0, No Iterations 0
time step continuity errors : sum local = 4.62086e-13, global = 4.62086e-13, cumulative = 8.17485e-12
DILUPBiCG:  Solving for k, Initial residual = 1, Final residual = 0, No Iterations 1

Evolving reactingOneDim for region panelRegion
diagonal:  Solving for rho, Initial residual = 0, Final residual = 0, No Iterations 0
diagonal:  Solving for Yv, Initial residual = 0, Final residual = 0, No Iterations 0
DICPCG:  Solving for T, Initial residual = 0.0159625, Final residual = 1.11317e-18, No Iterations 1
pyrolysis min/max(T) = 298.151, 545.366

Pyrolysis: reactingOneDim
    Total gas mass produced  [kg] = 6.92985e-06
    Total solid mass lost    [kg] = -6.92985e-06
    Total pyrolysis gases  [kg/s] = 1.224e-05
    Total heat release rate [J/s] = -19.1816

ExecutionTime = 0.13 s  ClockTime = 0 s

Courant Number mean: 0 max: 0
Time = 4.8

diagonal:  Solving for rho, Initial residual = 0, Final residual = 0, No Iterations 0
DILUPBiCG:  Solving for Ux, Initial residual = 1, Final residual = 1.23983e-16, No Iterations 1
DILUPBiCG:  Solving for Uz, Initial residual = 1, Final residual = 1.22967e-16, No Iterations 1
DILUPBiCG:  Solving for O2, Initial residual = 1, Final residual = 0, No Iterations 1
max of O2 = 0.233009
min of O2 = 0.23051
DILUPBiCG:  Solving for H2O, Initial residual = 1, Final residual = 0, No Iterations 1
max of H2O = 3.11206e-09
min of H2O = 3.07868e-09
DILUPBiCG:  Solving for CH4, Initial residual = 1, Final residual = 0, No Iterations 1
max of CH4 = 0.0107297
min of CH4 = 3.80207e-06
DILUPBiCG:  Solving for CO2, Initial residual = 1, Final residual = 0, No Iterations 1
max of CO2 = 4.64245e-09
min of CO2 = 4.59266e-09
max of N2 = 0.766988
min of N2 = 0
DICPCG:  Solving for G, Initial residual = 1, Final residual = 0, No Iterations 1
DILUPBiCG:  Solving for hs, Initial residual = 1, Final residual = 0, No Iterations 1
GAMG:  Solving for p_rgh, Initial residual = 1, Final residual = 0, No Iterations 1
diagonal:  Solving for rho, Initial residual = 0, Final residual = 0, No Iterations 0
time step continuity errors : sum local = 3.2435e-13, global = 3.2435e-13, cumulative = 8.4992e-12
GAMG:  Solving for p_rgh, Initial residual = 1, Final residual = 0, No Iterations 1
diagonal:  Solving for rho, Initial residual = 0, Final residual = 0, No Iterations 0
time step continuity errors : sum local = 1.65228e-12, global = -1.65228e-12, cumulative = 6.84692e-12
DILUPBiCG:  Solving for k, Initial residual = 1, Final residual = 0, No Iterations 1

Evolving reactingOneDim for region panelRegion
diagonal:  Solving for rho, Initial residual = 0, Final residual = 0, No Iterations 0
diagonal:  Solving for Yv, Initial residual = 0, Final residual = 0, No Iterations 0
DICPCG:  Solving for T, Initial residual = 0.0153368, Final residual = 1.15737e-18, No Iterations 1
pyrolysis min/max(T) = 298.152, 549.696

Pyrolysis: reactingOneDim
    Total gas mass produced  [kg] = 1.04647e-05
    Total solid mass lost    [kg] = -1.04647e-05
    Total pyrolysis gases  [kg/s] = 1.76744e-05
    Total heat release rate [J/s] = -27.6979

ExecutionTime = 0.14 s  ClockTime = 0 s

Courant Number mean: 0 max: 0
Time = 5

diagonal:  Solving for rho, Initial residual = 0, Final residual = 0, No Iterations 0
DILUPBiCG:  Solving for Ux, Initial residual = 1, Final residual = 0, No Iterations 1
DILUPBiCG:  Solving for Uz, Initial residual = 1, Final residual = 0, No Iterations 1
DILUPBiCG:  Solving for O2, Initial residual = 1, Final residual = 1.41761e-16, No Iterations 1
max of O2 = 0.233009
min of O2 = 0.229362
DILUPBiCG:  Solving for H2O, Initial residual = 1, Final residual = 0, No Iterations 1
max of H2O = 9.49771e-09
min of H2O = 9.34908e-09
DILUPBiCG:  Solving for CH4, Initial residual = 1, Final residual = 0, No Iterations 1
max of CH4 = 0.0156549
min of CH4 = 5.87762e-06
DILUPBiCG:  Solving for CO2, Initial residual = 1, Final residual = 1.17819e-16, No Iterations 1
max of CO2 = 1.4167e-08
min of CO2 = 1.39453e-08
max of N2 = 0.766987
min of N2 = 0
DICPCG:  Solving for G, Initial residual = 1, Final residual = 0, No Iterations 1
DILUPBiCG:  Solving for hs, Initial residual = 1, Final residual = 0, No Iterations 1
GAMG:  Solving for p_rgh, Initial residual = 1, Final residual = 0, No Iterations 1
diagonal:  Solving for rho, Initial residual = 0, Final residual = 0, No Iterations 0
time step continuity errors : sum local = 1.60585e-13, global = -1.60585e-13, cumulative = 6.68634e-12
GAMG:  Solving for p_rgh, Initial residual = 1, Final residual = 0, No Iterations 1
diagonal:  Solving for rho, Initial residual = 0, Final residual = 0, No Iterations 0
time step continuity errors : sum local = 2.77255e-13, global = -2.77255e-13, cumulative = 6.40908e-12
DILUPBiCG:  Solving for k, Initial residual = 1, Final residual = 0, No Iterations 1

Evolving reactingOneDim for region panelRegion
diagonal:  Solving for rho, Initial residual = 0, Final residual = 0, No Iterations 0
diagonal:  Solving for Yv, Initial residual = 0, Final residual = 0, No Iterations 0
DICPCG:  Solving for T, Initial residual = 0.0147592, Final residual = 8.58584e-20, No Iterations 1
pyrolysis min/max(T) = 298.152, 553.932

Pyrolysis: reactingOneDim
    Total gas mass produced  [kg] = 1.54924e-05
    Total solid mass lost    [kg] = -1.54924e-05
    Total pyrolysis gases  [kg/s] = 2.51385e-05
    Total heat release rate [J/s] = -39.3951

ExecutionTime = 0.14 s  ClockTime = 0 s

Courant Number mean: 0 max: 0
Time = 5.2

diagonal:  Solving for rho, Initial residual = 0, Final residual = 0, No Iterations 0
DILUPBiCG:  Solving for Ux, Initial residual = 1, Final residual = 0, No Iterations 1
DILUPBiCG:  Solving for Uz, Initial residual = 1, Final residual = 0, No Iterations 1
DILUPBiCG:  Solving for O2, Initial residual = 1, Final residual = 0, No Iterations 1
max of O2 = 0.233008
min of O2 = 0.227782
DILUPBiCG:  Solving for H2O, Initial residual = 1, Final residual = 0, No Iterations 1
max of H2O = 2.5517e-08
min of H2O = 2.49448e-08
DILUPBiCG:  Solving for CH4, Initial residual = 1, Final residual = 0, No Iterations 1
max of CH4 = 0.0224344
min of CH4 = 8.87293e-06
DILUPBiCG:  Solving for CO2, Initial residual = 1, Final residual = 0, No Iterations 1
max of CO2 = 3.80562e-08
min of CO2 = 3.72027e-08
max of N2 = 0.766986
min of N2 = 0
DICPCG:  Solving for G, Initial residual = 1, Final residual = 0, No Iterations 1
DILUPBiCG:  Solving for hs, Initial residual = 1, Final residual = 0, No Iterations 1
GAMG:  Solving for p_rgh, Initial residual = 1, Final residual = 0, No Iterations 1
diagonal:  Solving for rho, Initial residual = 0, Final residual = 0, No Iterations 0
time step continuity errors : sum local = 1.91512e-13, global = 1.91512e-13, cumulative = 6.60059e-12
GAMG:  Solving for p_rgh, Initial residual = 1, Final residual = 0, No Iterations 1
diagonal:  Solving for rho, Initial residual = 0, Final residual = 0, No Iterations 0
time step continuity errors : sum local = 5.29109e-13, global = 5.29109e-13, cumulative = 7.1297e-12
DILUPBiCG:  Solving for k, Initial residual = 1, Final residual = 1.605e-16, No Iterations 1

Evolving reactingOneDim for region panelRegion
diagonal:  Solving for rho, Initial residual = 0, Final residual = 0, No Iterations 0
diagonal:  Solving for Yv, Initial residual = 0, Final residual = 0, No Iterations 0
DICPCG:  Solving for T, Initial residual = 0.0142226, Final residual = 6.90632e-19, No Iterations 1
pyrolysis min/max(T) = 298.153, 558.073

Pyrolysis: reactingOneDim
    Total gas mass produced  [kg] = 2.25414e-05
    Total solid mass lost    [kg] = -2.25414e-05
    Total pyrolysis gases  [kg/s] = 3.52446e-05
    Total heat release rate [J/s] = -55.2326

ExecutionTime = 0.15 s  ClockTime = 0 s

Courant Number mean: 0 max: 0
Time = 5.4

diagonal:  Solving for rho, Initial residual = 0, Final residual = 0, No Iterations 0
DILUPBiCG:  Solving for Ux, Initial residual = 1, Final residual = 0, No Iterations 1
DILUPBiCG:  Solving for Uz, Initial residual = 1, Final residual = 0, No Iterations 1
DILUPBiCG:  Solving for O2, Initial residual = 1, Final residual = 1.28429e-16, No Iterations 1
max of O2 = 0.233007
min of O2 = 0.22565
DILUPBiCG:  Solving for H2O, Initial residual = 1, Final residual = 0, No Iterations 1
max of H2O = 6.30871e-08
min of H2O = 6.10951e-08
DILUPBiCG:  Solving for CH4, Initial residual = 1, Final residual = 0, No Iterations 1
max of CH4 = 0.0315869
min of CH4 = 1.31293e-05
DILUPBiCG:  Solving for CO2, Initial residual = 1, Final residual = 0, No Iterations 1
max of CO2 = 9.40681e-08
min of CO2 = 9.1098e-08
max of N2 = 0.766983
min of N2 = 0
DICPCG:  Solving for G, Initial residual = 1, Final residual = 0, No Iterations 1
DILUPBiCG:  Solving for hs, Initial residual = 1, Final residual = 0, No Iterations 1
GAMG:  Solving for p_rgh, Initial residual = 1, Final residual = 0, No Iterations 1
diagonal:  Solving for rho, Initial residual = 0, Final residual = 0, No Iterations 0
time step continuity errors : sum local = 3.59307e-13, global = -3.59307e-13, cumulative = 6.7704e-12
GAMG:  Solving for p_rgh, Initial residual = 1, Final residual = 0, No Iterations 1
diagonal:  Solving for rho, Initial residual = 0, Final residual = 0, No Iterations 0
time step continuity errors : sum local = 5.21617e-13, global = -5.21617e-13, cumulative = 6.24878e-12
DILUPBiCG:  Solving for k, Initial residual = 1, Final residual = 0, No Iterations 1

Evolving reactingOneDim for region panelRegion
diagonal:  Solving for rho, Initial residual = 0, Final residual = 0, No Iterations 0
diagonal:  Solving for Yv, Initial residual = 0, Final residual = 0, No Iterations 0
DICPCG:  Solving for T, Initial residual = 0.0137208, Final residual = 1.37496e-18, No Iterations 1
pyrolysis min/max(T) = 298.153, 562.121

Pyrolysis: reactingOneDim
    Total gas mass produced  [kg] = 3.2289e-05
    Total solid mass lost    [kg] = -3.2289e-05
    Total pyrolysis gases  [kg/s] = 4.87384e-05
    Total heat release rate [J/s] = -76.3791

ExecutionTime = 0.15 s  ClockTime = 0 s

Courant Number mean: 0 max: 0
Time = 5.6

diagonal:  Solving for rho, Initial residual = 0, Final residual = 0, No Iterations 0
DILUPBiCG:  Solving for Ux, Initial residual = 1, Final residual = 0, No Iterations 1
DILUPBiCG:  Solving for Uz, Initial residual = 1, Final residual = 0, No Iterations 1
DILUPBiCG:  Solving for O2, Initial residual = 1, Final residual = 0, No Iterations 1
max of O2 = 0.233005
min of O2 = 0.222828
DILUPBiCG:  Solving for H2O, Initial residual = 1, Final residual = 0, No Iterations 1
max of H2O = 1.46812e-07
min of H2O = 1.40399e-07
DILUPBiCG:  Solving for CH4, Initial residual = 1, Final residual = 0, No Iterations 1
max of CH4 = 0.0436972
min of CH4 = 1.90886e-05
DILUPBiCG:  Solving for CO2, Initial residual = 1, Final residual = 0, No Iterations 1
max of CO2 = 2.1884e-07
min of CO2 = 2.09282e-07
max of N2 = 0.76698
min of N2 = 0
DICPCG:  Solving for G, Initial residual = 1, Final residual = 0, No Iterations 1
DILUPBiCG:  Solving for hs, Initial residual = 1, Final residual = 0, No Iterations 1
GAMG:  Solving for p_rgh, Initial residual = 1, Final residual = 0, No Iterations 1
diagonal:  Solving for rho, Initial residual = 0, Final residual = 0, No Iterations 0
time step continuity errors : sum local = 2.84119e-13, global = -2.84119e-13, cumulative = 5.96466e-12
GAMG:  Solving for p_rgh, Initial residual = 1, Final residual = 0, No Iterations 1
diagonal:  Solving for rho, Initial residual = 0, Final residual = 0, No Iterations 0
time step continuity errors : sum local = 3.12588e-13, global = -3.12588e-13, cumulative = 5.65207e-12
DILUPBiCG:  Solving for k, Initial residual = 1, Final residual = 0, No Iterations 1

Evolving reactingOneDim for region panelRegion
diagonal:  Solving for rho, Initial residual = 0, Final residual = 0, No Iterations 0
diagonal:  Solving for Yv, Initial residual = 0, Final residual = 0, No Iterations 0
DICPCG:  Solving for T, Initial residual = 0.0132483, Final residual = 1.65384e-18, No Iterations 1
pyrolysis min/max(T) = 298.154, 566.074

Pyrolysis: reactingOneDim
    Total gas mass produced  [kg] = 4.55912e-05
    Total solid mass lost    [kg] = -4.55912e-05
    Total pyrolysis gases  [kg/s] = 6.65106e-05
    Total heat release rate [J/s] = -104.23

ExecutionTime = 0.15 s  ClockTime = 0 s

Courant Number mean: 0 max: 0
Time = 5.8

diagonal:  Solving for rho, Initial residual = 0, Final residual = 0, No Iterations 0
DILUPBiCG:  Solving for Ux, Initial residual = 1, Final residual = 0, No Iterations 1
DILUPBiCG:  Solving for Uz, Initial residual = 1, Final residual = 0, No Iterations 1
DILUPBiCG:  Solving for O2, Initial residual = 1, Final residual = 0, No Iterations 1
max of O2 = 0.233003
min of O2 = 0.219171
DILUPBiCG:  Solving for H2O, Initial residual = 1, Final residual = 0, No Iterations 1
max of H2O = 3.2576e-07
min of H2O = 3.06423e-07
DILUPBiCG:  Solving for CH4, Initial residual = 1, Final residual = 0, No Iterations 1
max of CH4 = 0.0593866
min of CH4 = 2.73128e-05
DILUPBiCG:  Solving for CO2, Initial residual = 1, Final residual = 0, No Iterations 1
max of CO2 = 4.85368e-07
min of CO2 = 4.56556e-07
max of N2 = 0.766975
min of N2 = 0
DICPCG:  Solving for G, Initial residual = 1, Final residual = 0, No Iterations 1
DILUPBiCG:  Solving for hs, Initial residual = 1, Final residual = 0, No Iterations 1
GAMG:  Solving for p_rgh, Initial residual = 1, Final residual = 0, No Iterations 1
diagonal:  Solving for rho, Initial residual = 0, Final residual = 0, No Iterations 0
time step continuity errors : sum local = 3.64289e-13, global = 3.64289e-13, cumulative = 6.01636e-12
GAMG:  Solving for p_rgh, Initial residual = 1, Final residual = 0, No Iterations 1
diagonal:  Solving for rho, Initial residual = 0, Final residual = 0, No Iterations 0
time step continuity errors : sum local = 4.55927e-13, global = -4.55927e-13, cumulative = 5.56043e-12
DILUPBiCG:  Solving for k, Initial residual = 1, Final residual = 0, No Iterations 1

Evolving reactingOneDim for region panelRegion
diagonal:  Solving for rho, Initial residual = 0, Final residual = 0, No Iterations 0
diagonal:  Solving for Yv, Initial residual = 0, Final residual = 0, No Iterations 0
DICPCG:  Solving for T, Initial residual = 0.0128001, Final residual = 1.20165e-18, No Iterations 1
pyrolysis min/max(T) = 298.155, 569.931

Pyrolysis: reactingOneDim
    Total gas mass produced  [kg] = 6.35113e-05
    Total solid mass lost    [kg] = -6.35113e-05
    Total pyrolysis gases  [kg/s] = 8.96006e-05
    Total heat release rate [J/s] = -140.415

ExecutionTime = 0.16 s  ClockTime = 0 s

Courant Number mean: 0 max: 0
Time = 6

diagonal:  Solving for rho, Initial residual = 0, Final residual = 0, No Iterations 0
DILUPBiCG:  Solving for Ux, Initial residual = 1, Final residual = 0, No Iterations 1
DILUPBiCG:  Solving for Uz, Initial residual = 1, Final residual = 0, No Iterations 1
DILUPBiCG:  Solving for O2, Initial residual = 1, Final residual = 0, No Iterations 1
max of O2 = 0.232999
min of O2 = 0.214539
DILUPBiCG:  Solving for H2O, Initial residual = 1, Final residual = 0, No Iterations 1
max of H2O = 6.94696e-07
min of H2O = 6.39657e-07
DILUPBiCG:  Solving for CH4, Initial residual = 1, Final residual = 0, No Iterations 1
max of CH4 = 0.0792617
min of CH4 = 3.85031e-05
DILUPBiCG:  Solving for CO2, Initial residual = 1, Final residual = 0, No Iterations 1
max of CO2 = 1.03442e-06
min of CO2 = 9.52463e-07
max of N2 = 0.766969
min of N2 = 0
DICPCG:  Solving for G, Initial residual = 1, Final residual = 0, No Iterations 1
DILUPBiCG:  Solving for hs, Initial residual = 1, Final residual = 0, No Iterations 1
GAMG:  Solving for p_rgh, Initial residual = 1, Final residual = 0, No Iterations 1
diagonal:  Solving for rho, Initial residual = 0, Final residual = 0, No Iterations 0
time step continuity errors : sum local = 1.00325e-12, global = -1.00325e-12, cumulative = 4.55718e-12
GAMG:  Solving for p_rgh, Initial residual = 1, Final residual = 0, No Iterations 1
diagonal:  Solving for rho, Initial residual = 0, Final residual = 0, No Iterations 0
time step continuity errors : sum local = 2.53077e-13, global = -2.53077e-13, cumulative = 4.3041e-12
DILUPBiCG:  Solving for k, Initial residual = 1, Final residual = 0, No Iterations 1

Evolving reactingOneDim for region panelRegion
diagonal:  Solving for rho, Initial residual = 0, Final residual = 0, No Iterations 0
diagonal:  Solving for Yv, Initial residual = 0, Final residual = 0, No Iterations 0
DICPCG:  Solving for T, Initial residual = 0.0123716, Final residual = 1.48767e-18, No Iterations 1
pyrolysis min/max(T) = 298.156, 573.687

Pyrolysis: reactingOneDim
    Total gas mass produced  [kg] = 8.73492e-05
    Total solid mass lost    [kg] = -8.73492e-05
    Total pyrolysis gases  [kg/s] = 0.000119189
    Total heat release rate [J/s] = -186.784

ExecutionTime = 0.16 s  ClockTime = 0 s

Courant Number mean: 0 max: 0
Time = 6.2

diagonal:  Solving for rho, Initial residual = 0, Final residual = 0, No Iterations 0
DILUPBiCG:  Solving for Ux, Initial residual = 1, Final residual = 0, No Iterations 1
DILUPBiCG:  Solving for Uz, Initial residual = 1, Final residual = 0, No Iterations 1
DILUPBiCG:  Solving for O2, Initial residual = 1, Final residual = 0, No Iterations 1
max of O2 = 0.232993
min of O2 = 0.20881
DILUPBiCG:  Solving for H2O, Initial residual = 1, Final residual = 0, No Iterations 1
max of H2O = 1.43108e-06
min of H2O = 1.28255e-06
DILUPBiCG:  Solving for CH4, Initial residual = 1, Final residual = 0, No Iterations 1
max of CH4 = 0.10384
min of CH4 = 5.35157e-05
DILUPBiCG:  Solving for CO2, Initial residual = 1, Final residual = 0, No Iterations 1
max of CO2 = 2.12906e-06
min of CO2 = 1.90808e-06
max of N2 = 0.766961
min of N2 = 0
DICPCG:  Solving for G, Initial residual = 1, Final residual = 0, No Iterations 1
DILUPBiCG:  Solving for hs, Initial residual = 1, Final residual = 0, No Iterations 1
GAMG:  Solving for p_rgh, Initial residual = 1, Final residual = 0, No Iterations 1
diagonal:  Solving for rho, Initial residual = 0, Final residual = 0, No Iterations 0
time step continuity errors : sum local = 4.1759e-13, global = 4.1759e-13, cumulative = 4.72169e-12
GAMG:  Solving for p_rgh, Initial residual = 1, Final residual = 0, No Iterations 1
diagonal:  Solving for rho, Initial residual = 0, Final residual = 0, No Iterations 0
time step continuity errors : sum local = 1.11471e-12, global = 1.11471e-12, cumulative = 5.8364e-12
DILUPBiCG:  Solving for k, Initial residual = 1, Final residual = 0, No Iterations 1

Evolving reactingOneDim for region panelRegion
diagonal:  Solving for rho, Initial residual = 0, Final residual = 0, No Iterations 0
diagonal:  Solving for Yv, Initial residual = 0, Final residual = 0, No Iterations 0
DICPCG:  Solving for T, Initial residual = 0.0119586, Final residual = 3.64623e-19, No Iterations 1
pyrolysis min/max(T) = 298.158, 577.339

Pyrolysis: reactingOneDim
    Total gas mass produced  [kg] = 0.000118664
    Total solid mass lost    [kg] = -0.000118664
    Total pyrolysis gases  [kg/s] = 0.000156575
    Total heat release rate [J/s] = -245.373

ExecutionTime = 0.17 s  ClockTime = 0 s

Courant Number mean: 0 max: 0
Time = 6.4

diagonal:  Solving for rho, Initial residual = 0, Final residual = 0, No Iterations 0
DILUPBiCG:  Solving for Ux, Initial residual = 1, Final residual = 0, No Iterations 1
DILUPBiCG:  Solving for Uz, Initial residual = 1, Final residual = 1.40185e-16, No Iterations 1
DILUPBiCG:  Solving for O2, Initial residual = 1, Final residual = 1.24155e-16, No Iterations 1
max of O2 = 0.23301
min of O2 = 0.201905
DILUPBiCG:  Solving for H2O, Initial residual = 1, Final residual = 0, No Iterations 1
max of H2O = 2.85701e-06
min of H2O = 0
DILUPBiCG:  Solving for CH4, Initial residual = 1, Final residual = 1.15384e-16, No Iterations 1
max of CH4 = 0.133458
min of CH4 = 0
DILUPBiCG:  Solving for CO2, Initial residual = 1, Final residual = 0, No Iterations 1
max of CO2 = 4.24541e-06
min of CO2 = 0
max of N2 = 0.76695
min of N2 = 0
DICPCG:  Solving for G, Initial residual = 1, Final residual = 0, No Iterations 1
DILUPBiCG:  Solving for hs, Initial residual = 1, Final residual = 0, No Iterations 1
GAMG:  Solving for p_rgh, Initial residual = 1, Final residual = 0, No Iterations 1
diagonal:  Solving for rho, Initial residual = 0, Final residual = 0, No Iterations 0
time step continuity errors : sum local = 6.64815e-13, global = 6.64815e-13, cumulative = 6.50121e-12
GAMG:  Solving for p_rgh, Initial residual = 1, Final residual = 0, No Iterations 1
diagonal:  Solving for rho, Initial residual = 0, Final residual = 0, No Iterations 0
time step continuity errors : sum local = 1.15852e-12, global = -1.15852e-12, cumulative = 5.34269e-12
DILUPBiCG:  Solving for k, Initial residual = 1, Final residual = 0, No Iterations 1

Evolving reactingOneDim for region panelRegion
diagonal:  Solving for rho, Initial residual = 0, Final residual = 0, No Iterations 0
diagonal:  Solving for Yv, Initial residual = 0, Final residual = 0, No Iterations 0
DICPCG:  Solving for T, Initial residual = 0.0115573, Final residual = 8.47016e-19, No Iterations 1
pyrolysis min/max(T) = 298.159, 580.881

Pyrolysis: reactingOneDim
    Total gas mass produced  [kg] = 0.00015929
    Total solid mass lost    [kg] = -0.00015929
    Total pyrolysis gases  [kg/s] = 0.000203129
    Total heat release rate [J/s] = -318.327

ExecutionTime = 0.17 s  ClockTime = 0 s

Courant Number mean: 0 max: 0
Time = 6.6

diagonal:  Solving for rho, Initial residual = 0, Final residual = 0, No Iterations 0
DILUPBiCG:  Solving for Ux, Initial residual = 1, Final residual = 0, No Iterations 1
DILUPBiCG:  Solving for Uz, Initial residual = 1, Final residual = 2.14353e-16, No Iterations 1
DILUPBiCG:  Solving for O2, Initial residual = 1, Final residual = 0, No Iterations 1
max of O2 = 0.23301
min of O2 = 0.193809
DILUPBiCG:  Solving for H2O, Initial residual = 1, Final residual = 0, No Iterations 1
max of H2O = 5.54025e-06
min of H2O = 0
DILUPBiCG:  Solving for CH4, Initial residual = 1, Final residual = 0, No Iterations 1
max of CH4 = 0.168174
min of CH4 = 0
DILUPBiCG:  Solving for CO2, Initial residual = 1, Final residual = 0, No Iterations 1
max of CO2 = 8.2195e-06
min of CO2 = 0
max of N2 = 0.76699
min of N2 = 0
DICPCG:  Solving for G, Initial residual = 1, Final residual = 0, No Iterations 1
DILUPBiCG:  Solving for hs, Initial residual = 1, Final residual = 1.24864e-16, No Iterations 1
GAMG:  Solving for p_rgh, Initial residual = 1, Final residual = 0, No Iterations 1
diagonal:  Solving for rho, Initial residual = 0, Final residual = 0, No Iterations 0
time step continuity errors : sum local = 1.13601e-13, global = -1.13601e-13, cumulative = 5.22909e-12
GAMG:  Solving for p_rgh, Initial residual = 1, Final residual = 0, No Iterations 1
diagonal:  Solving for rho, Initial residual = 0, Final residual = 0, No Iterations 0
time step continuity errors : sum local = 9.37869e-13, global = 9.37869e-13, cumulative = 6.16696e-12
DILUPBiCG:  Solving for k, Initial residual = 1, Final residual = 0, No Iterations 1

Evolving reactingOneDim for region panelRegion
diagonal:  Solving for rho, Initial residual = 0, Final residual = 0, No Iterations 0
diagonal:  Solving for Yv, Initial residual = 0, Final residual = 0, No Iterations 0
DICPCG:  Solving for T, Initial residual = 0.0111644, Final residual = 3.84348e-19, No Iterations 1
pyrolysis min/max(T) = 298.161, 584.306

Pyrolysis: reactingOneDim
    Total gas mass produced  [kg] = 0.000211333
    Total solid mass lost    [kg] = -0.000211333
    Total pyrolysis gases  [kg/s] = 0.000260217
    Total heat release rate [J/s] = -407.791

ExecutionTime = 0.17 s  ClockTime = 0 s

Courant Number mean: 0 max: 0
Time = 6.8

diagonal:  Solving for rho, Initial residual = 0, Final residual = 0, No Iterations 0
DILUPBiCG:  Solving for Ux, Initial residual = 1, Final residual = 0, No Iterations 1
DILUPBiCG:  Solving for Uz, Initial residual = 1, Final residual = 0, No Iterations 1
DILUPBiCG:  Solving for O2, Initial residual = 1, Final residual = 0, No Iterations 1
max of O2 = 0.23301
min of O2 = 0.184591
DILUPBiCG:  Solving for H2O, Initial residual = 1, Final residual = 0, No Iterations 1
max of H2O = 1.04512e-05
min of H2O = 0
DILUPBiCG:  Solving for CH4, Initial residual = 1, Final residual = 0, No Iterations 1
max of CH4 = 0.207687
min of CH4 = 0
DILUPBiCG:  Solving for CO2, Initial residual = 1, Final residual = 0, No Iterations 1
max of CO2 = 1.54728e-05
min of CO2 = 0
max of N2 = 0.76699
min of N2 = 0
DICPCG:  Solving for G, Initial residual = 1, Final residual = 0, No Iterations 1
DILUPBiCG:  Solving for hs, Initial residual = 1, Final residual = 0, No Iterations 1
[...]
max of H2O = 0.087636
min of H2O = 0
DILUPBiCG:  Solving for CH4, Initial residual = 1, Final residual = 0, No Iterations 1
max of CH4 = 0.663194
min of CH4 = 0
DILUPBiCG:  Solving for CO2, Initial residual = 1, Final residual = 0, No Iterations 1
max of CO2 = 0.107044
min of CO2 = 0
max of N2 = 0.76699
min of N2 = 0
DICPCG:  Solving for G, Initial residual = 1, Final residual = 0, No Iterations 1
DILUPBiCG:  Solving for hs, Initial residual = 1, Final residual = 0, No Iterations 1
GAMG:  Solving for p_rgh, Initial residual = 1, Final residual = 0, No Iterations 1
diagonal:  Solving for rho, Initial residual = 0, Final residual = 0, No Iterations 0
time step continuity errors : sum local = 2.09037e-11, global = 2.09037e-11, cumulative = -2.83152e-07
GAMG:  Solving for p_rgh, Initial residual = 1, Final residual = 0, No Iterations 1
diagonal:  Solving for rho, Initial residual = 0, Final residual = 0, No Iterations 0
time step continuity errors : sum local = 1.80287e-11, global = 1.80287e-11, cumulative = -2.83134e-07
DILUPBiCG:  Solving for k, Initial residual = 1, Final residual = 0, No Iterations 1

Evolving reactingOneDim for region panelRegion
diagonal:  Solving for rho, Initial residual = 0, Final residual = 0, No Iterations 0
diagonal:  Solving for Yv, Initial residual = 0, Final residual = 0, No Iterations 0
DICPCG:  Solving for T, Initial residual = 0.00124912, Final residual = 2.60993e-19, No Iterations 1
pyrolysis min/max(T) = 444.316, 981.745

Pyrolysis: reactingOneDim
    Total gas mass produced  [kg] = 0.927401
    Total solid mass lost    [kg] = -0.927401
    Total pyrolysis gases  [kg/s] = 0.00862217
    Total heat release rate [J/s] = -13512

ExecutionTime = 2.73 s  ClockTime = 3 s

Courant Number mean: 0 max: 0
Time = 98.6

diagonal:  Solving for rho, Initial residual = 0, Final residual = 0, No Iterations 0
DILUPBiCG:  Solving for Ux, Initial residual = 1, Final residual = 0, No Iterations 1
DILUPBiCG:  Solving for Uz, Initial residual = 1, Final residual = 0, No Iterations 1
DILUPBiCG:  Solving for O2, Initial residual = 1, Final residual = 0, No Iterations 1
max of O2 = 0.23301
min of O2 = 0.0116474
DILUPBiCG:  Solving for H2O, Initial residual = 1, Final residual = 1.2077e-16, No Iterations 1
max of H2O = 0.0880551
min of H2O = 0
DILUPBiCG:  Solving for CH4, Initial residual = 1, Final residual = 0, No Iterations 1
max of CH4 = 0.668285
min of CH4 = 0
DILUPBiCG:  Solving for CO2, Initial residual = 1, Final residual = 0, No Iterations 1
max of CO2 = 0.107556
min of CO2 = 0
max of N2 = 0.76699
min of N2 = 0
DICPCG:  Solving for G, Initial residual = 1, Final residual = 0, No Iterations 1
DILUPBiCG:  Solving for hs, Initial residual = 1, Final residual = 0, No Iterations 1
GAMG:  Solving for p_rgh, Initial residual = 1, Final residual = 8.02591e-09, No Iterations 1
diagonal:  Solving for rho, Initial residual = 0, Final residual = 0, No Iterations 0
time step continuity errors : sum local = 1.79859e-11, global = 1.79859e-11, cumulative = -2.83116e-07
GAMG:  Solving for p_rgh, Initial residual = 1, Final residual = 0, No Iterations 1
diagonal:  Solving for rho, Initial residual = 0, Final residual = 0, No Iterations 0
time step continuity errors : sum local = 1.99906e-11, global = 1.99906e-11, cumulative = -2.83096e-07
DILUPBiCG:  Solving for k, Initial residual = 1, Final residual = 0, No Iterations 1

Evolving reactingOneDim for region panelRegion
diagonal:  Solving for rho, Initial residual = 0, Final residual = 0, No Iterations 0
diagonal:  Solving for Yv, Initial residual = 0, Final residual = 0, No Iterations 0
DICPCG:  Solving for T, Initial residual = 0.00124265, Final residual = 3.44403e-19, No Iterations 1
pyrolysis min/max(T) = 444.648, 981.809

Pyrolysis: reactingOneDim
    Total gas mass produced  [kg] = 0.929125
    Total solid mass lost    [kg] = -0.929125
    Total pyrolysis gases  [kg/s] = 0.00861605
    Total heat release rate [J/s] = -13502.4

ExecutionTime = 2.74 s  ClockTime = 3 s

Courant Number mean: 0 max: 0
Time = 98.8

diagonal:  Solving for rho, Initial residual = 0, Final residual = 0, No Iterations 0
DILUPBiCG:  Solving for Ux, Initial residual = 1, Final residual = 0, No Iterations 1
DILUPBiCG:  Solving for Uz, Initial residual = 1, Final residual = 0, No Iterations 1
DILUPBiCG:  Solving for O2, Initial residual = 1, Final residual = 0, No Iterations 1
max of O2 = 0.0264887
min of O2 = 0.0104136
DILUPBiCG:  Solving for H2O, Initial residual = 1, Final residual = 1.31492e-16, No Iterations 1
max of H2O = 0.0888302
min of H2O = 0.034922
DILUPBiCG:  Solving for CH4, Initial residual = 1, Final residual = 1.33293e-16, No Iterations 1
max of CH4 = 0.673554
min of CH4 = 0.169627
DILUPBiCG:  Solving for CO2, Initial residual = 1, Final residual = 0, No Iterations 1
max of CO2 = 0.108503
min of CO2 = 0.0426559
max of N2 = 0.76699
min of N2 = 0
DICPCG:  Solving for G, Initial residual = 1, Final residual = 0, No Iterations 1
DILUPBiCG:  Solving for hs, Initial residual = 1, Final residual = 0, No Iterations 1
GAMG:  Solving for p_rgh, Initial residual = 1, Final residual = 0, No Iterations 1
diagonal:  Solving for rho, Initial residual = 0, Final residual = 0, No Iterations 0
time step continuity errors : sum local = 1.34044e-12, global = 1.34044e-12, cumulative = -2.83094e-07
GAMG:  Solving for p_rgh, Initial residual = 1, Final residual = 0, No Iterations 1
diagonal:  Solving for rho, Initial residual = 0, Final residual = 0, No Iterations 0
time step continuity errors : sum local = 1.58694e-12, global = 1.58694e-12, cumulative = -2.83093e-07
DILUPBiCG:  Solving for k, Initial residual = 1, Final residual = 0, No Iterations 1

Evolving reactingOneDim for region panelRegion
diagonal:  Solving for rho, Initial residual = 0, Final residual = 0, No Iterations 0
diagonal:  Solving for Yv, Initial residual = 0, Final residual = 0, No Iterations 0
DICPCG:  Solving for T, Initial residual = 0.00123621, Final residual = 1.2397e-19, No Iterations 1
pyrolysis min/max(T) = 444.978, 981.873

Pyrolysis: reactingOneDim
    Total gas mass produced  [kg] = 0.930847
    Total solid mass lost    [kg] = -0.930847
    Total pyrolysis gases  [kg/s] = 0.00861002
    Total heat release rate [J/s] = -13492.9

ExecutionTime = 2.74 s  ClockTime = 3 s

Courant Number mean: 0 max: 0
Time = 99

diagonal:  Solving for rho, Initial residual = 0, Final residual = 0, No Iterations 0
DILUPBiCG:  Solving for Ux, Initial residual = 1, Final residual = 1.11445e-16, No Iterations 1
DILUPBiCG:  Solving for Uz, Initial residual = 1, Final residual = 0, No Iterations 1
DILUPBiCG:  Solving for O2, Initial residual = 1, Final residual = 0, No Iterations 1
max of O2 = 0.0238937
min of O2 = 0.00929346
DILUPBiCG:  Solving for H2O, Initial residual = 1, Final residual = 0, No Iterations 1
max of H2O = 0.0894473
min of H2O = 0.0347906
DILUPBiCG:  Solving for CH4, Initial residual = 1, Final residual = 0, No Iterations 1
max of CH4 = 0.679421
min of CH4 = 0.175786
DILUPBiCG:  Solving for CO2, Initial residual = 1, Final residual = 0, No Iterations 1
max of CO2 = 0.109256
min of CO2 = 0.0424953
max of N2 = 0.606551
min of N2 = 0
DICPCG:  Solving for G, Initial residual = 1, Final residual = 0, No Iterations 1
DILUPBiCG:  Solving for hs, Initial residual = 1, Final residual = 0, No Iterations 1
GAMG:  Solving for p_rgh, Initial residual = 1, Final residual = 0, No Iterations 1
diagonal:  Solving for rho, Initial residual = 0, Final residual = 0, No Iterations 0
time step continuity errors : sum local = 1.20514e-12, global = 1.20514e-12, cumulative = -2.83091e-07
GAMG:  Solving for p_rgh, Initial residual = 1, Final residual = 0, No Iterations 1
diagonal:  Solving for rho, Initial residual = 0, Final residual = 0, No Iterations 0
time step continuity errors : sum local = 1.53388e-12, global = -1.53388e-12, cumulative = -2.83093e-07
DILUPBiCG:  Solving for k, Initial residual = 1, Final residual = 0, No Iterations 1

Evolving reactingOneDim for region panelRegion
diagonal:  Solving for rho, Initial residual = 0, Final residual = 0, No Iterations 0
diagonal:  Solving for Yv, Initial residual = 0, Final residual = 0, No Iterations 0
DICPCG:  Solving for T, Initial residual = 0.00122981, Final residual = 8.84883e-20, No Iterations 1
pyrolysis min/max(T) = 445.306, 981.936

Pyrolysis: reactingOneDim
    Total gas mass produced  [kg] = 0.932568
    Total solid mass lost    [kg] = -0.932568
    Total pyrolysis gases  [kg/s] = 0.00860405
    Total heat release rate [J/s] = -13483.6

ExecutionTime = 2.74 s  ClockTime = 3 s

Courant Number mean: 0 max: 0
Time = 99.2

diagonal:  Solving for rho, Initial residual = 0, Final residual = 0, No Iterations 0
DILUPBiCG:  Solving for Ux, Initial residual = 1, Final residual = 0, No Iterations 1
DILUPBiCG:  Solving for Uz, Initial residual = 1, Final residual = 0, No Iterations 1
DILUPBiCG:  Solving for O2, Initial residual = 1, Final residual = 0, No Iterations 1
max of O2 = 0.0215522
min of O2 = 0.00829463
DILUPBiCG:  Solving for H2O, Initial residual = 1, Final residual = 0, No Iterations 1
max of H2O = 0.0899257
min of H2O = 0.034609
DILUPBiCG:  Solving for CH4, Initial residual = 1, Final residual = 1.3285e-16, No Iterations 1
max of CH4 = 0.685173
min of CH4 = 0.181975
DILUPBiCG:  Solving for CO2, Initial residual = 1, Final residual = 0, No Iterations 1
max of CO2 = 0.109841
min of CO2 = 0.0422736
max of N2 = 0.601617
min of N2 = 0
DICPCG:  Solving for G, Initial residual = 1, Final residual = 0, No Iterations 1
DILUPBiCG:  Solving for hs, Initial residual = 1, Final residual = 0, No Iterations 1
GAMG:  Solving for p_rgh, Initial residual = 1, Final residual = 0, No Iterations 1
diagonal:  Solving for rho, Initial residual = 0, Final residual = 0, No Iterations 0
time step continuity errors : sum local = 2.21695e-12, global = 2.21695e-12, cumulative = -2.83091e-07
GAMG:  Solving for p_rgh, Initial residual = 1, Final residual = 0, No Iterations 1
diagonal:  Solving for rho, Initial residual = 0, Final residual = 0, No Iterations 0
time step continuity errors : sum local = 8.45643e-12, global = -8.45643e-12, cumulative = -2.83099e-07
DILUPBiCG:  Solving for k, Initial residual = 1, Final residual = 0, No Iterations 1

Evolving reactingOneDim for region panelRegion
diagonal:  Solving for rho, Initial residual = 0, Final residual = 0, No Iterations 0
diagonal:  Solving for Yv, Initial residual = 0, Final residual = 0, No Iterations 0
DICPCG:  Solving for T, Initial residual = 0.00122344, Final residual = 1.68199e-19, No Iterations 1
pyrolysis min/max(T) = 445.632, 981.998

Pyrolysis: reactingOneDim
    Total gas mass produced  [kg] = 0.934287
    Total solid mass lost    [kg] = -0.934287
    Total pyrolysis gases  [kg/s] = 0.00859815
    Total heat release rate [J/s] = -13474.4

ExecutionTime = 2.75 s  ClockTime = 3 s

Courant Number mean: 0 max: 0
Time = 99.4

diagonal:  Solving for rho, Initial residual = 0, Final residual = 0, No Iterations 0
DILUPBiCG:  Solving for Ux, Initial residual = 1, Final residual = 0, No Iterations 1
DILUPBiCG:  Solving for Uz, Initial residual = 1, Final residual = 0, No Iterations 1
DILUPBiCG:  Solving for O2, Initial residual = 1, Final residual = 0, No Iterations 1
max of O2 = 0.0194381
min of O2 = 0.00740783
DILUPBiCG:  Solving for H2O, Initial residual = 1, Final residual = 0, No Iterations 1
max of H2O = 0.090281
min of H2O = 0.034406
DILUPBiCG:  Solving for CH4, Initial residual = 1, Final residual = 0, No Iterations 1
max of CH4 = 0.690616
min of CH4 = 0.188181
DILUPBiCG:  Solving for CO2, Initial residual = 1, Final residual = 0, No Iterations 1
max of CO2 = 0.110275
min of CO2 = 0.0420257
max of N2 = 0.596707
min of N2 = 0
DICPCG:  Solving for G, Initial residual = 1, Final residual = 0, No Iterations 1
DILUPBiCG:  Solving for hs, Initial residual = 1, Final residual = 0, No Iterations 1
GAMG:  Solving for p_rgh, Initial residual = 1, Final residual = 0, No Iterations 1
diagonal:  Solving for rho, Initial residual = 0, Final residual = 0, No Iterations 0
time step continuity errors : sum local = 2.56515e-12, global = -2.56515e-12, cumulative = -2.83102e-07
GAMG:  Solving for p_rgh, Initial residual = 1, Final residual = 0, No Iterations 1
diagonal:  Solving for rho, Initial residual = 0, Final residual = 0, No Iterations 0
time step continuity errors : sum local = 3.67815e-12, global = 3.67815e-12, cumulative = -2.83098e-07
DILUPBiCG:  Solving for k, Initial residual = 1, Final residual = 0, No Iterations 1

Evolving reactingOneDim for region panelRegion
diagonal:  Solving for rho, Initial residual = 0, Final residual = 0, No Iterations 0
diagonal:  Solving for Yv, Initial residual = 0, Final residual = 0, No Iterations 0
DICPCG:  Solving for T, Initial residual = 0.00121711, Final residual = 1.10705e-19, No Iterations 1
pyrolysis min/max(T) = 445.955, 982.06

Pyrolysis: reactingOneDim
    Total gas mass produced  [kg] = 0.936006
    Total solid mass lost    [kg] = -0.936006
    Total pyrolysis gases  [kg/s] = 0.00859233
    Total heat release rate [J/s] = -13465.2

ExecutionTime = 2.75 s  ClockTime = 3 s

Courant Number mean: 0 max: 0
Time = 99.6

diagonal:  Solving for rho, Initial residual = 0, Final residual = 0, No Iterations 0
DILUPBiCG:  Solving for Ux, Initial residual = 1, Final residual = 0, No Iterations 1
DILUPBiCG:  Solving for Uz, Initial residual = 1, Final residual = 0, No Iterations 1
DILUPBiCG:  Solving for O2, Initial residual = 1, Final residual = 0, No Iterations 1
max of O2 = 0.0175298
min of O2 = 0.00661953
DILUPBiCG:  Solving for H2O, Initial residual = 1, Final residual = 0, No Iterations 1
max of H2O = 0.0905261
min of H2O = 0.0341842
DILUPBiCG:  Solving for CH4, Initial residual = 1, Final residual = 0, No Iterations 1
max of CH4 = 0.695789
min of CH4 = 0.194393
DILUPBiCG:  Solving for CO2, Initial residual = 1, Final residual = 0, No Iterations 1
max of CO2 = 0.110574
min of CO2 = 0.0417547
max of N2 = 0.591825
min of N2 = 0
DICPCG:  Solving for G, Initial residual = 1, Final residual = 1.40698e-16, No Iterations 1
DILUPBiCG:  Solving for hs, Initial residual = 1, Final residual = 1.22468e-16, No Iterations 1
GAMG:  Solving for p_rgh, Initial residual = 1, Final residual = 0, No Iterations 1
diagonal:  Solving for rho, Initial residual = 0, Final residual = 0, No Iterations 0
time step continuity errors : sum local = 4.43616e-13, global = 4.43616e-13, cumulative = -2.83098e-07
GAMG:  Solving for p_rgh, Initial residual = 1, Final residual = 0, No Iterations 1
diagonal:  Solving for rho, Initial residual = 0, Final residual = 0, No Iterations 0
time step continuity errors : sum local = 3.8297e-12, global = 3.8297e-12, cumulative = -2.83094e-07
DILUPBiCG:  Solving for k, Initial residual = 1, Final residual = 0, No Iterations 1

Evolving reactingOneDim for region panelRegion
diagonal:  Solving for rho, Initial residual = 0, Final residual = 0, No Iterations 0
diagonal:  Solving for Yv, Initial residual = 0, Final residual = 0, No Iterations 0
DICPCG:  Solving for T, Initial residual = 0.00121081, Final residual = 5.31613e-20, No Iterations 1
pyrolysis min/max(T) = 446.277, 982.121

Pyrolysis: reactingOneDim
    Total gas mass produced  [kg] = 0.937723
    Total solid mass lost    [kg] = -0.937723
    Total pyrolysis gases  [kg/s] = 0.00858656
    Total heat release rate [J/s] = -13456.2

ExecutionTime = 2.76 s  ClockTime = 3 s

Courant Number mean: 0 max: 0
Time = 99.8

diagonal:  Solving for rho, Initial residual = 0, Final residual = 0, No Iterations 0
DILUPBiCG:  Solving for Ux, Initial residual = 1, Final residual = 0, No Iterations 1
DILUPBiCG:  Solving for Uz, Initial residual = 1, Final residual = 0, No Iterations 1
DILUPBiCG:  Solving for O2, Initial residual = 1, Final residual = 0, No Iterations 1
max of O2 = 0.0158077
min of O2 = 0.00591799
DILUPBiCG:  Solving for H2O, Initial residual = 1, Final residual = 0, No Iterations 1
max of H2O = 0.0906726
min of H2O = 0.0339455
DILUPBiCG:  Solving for CH4, Initial residual = 1, Final residual = 0, No Iterations 1
max of CH4 = 0.700725
min of CH4 = 0.200602
DILUPBiCG:  Solving for CO2, Initial residual = 1, Final residual = 0, No Iterations 1
max of CO2 = 0.110753
min of CO2 = 0.0414632
max of N2 = 0.586977
min of N2 = 0
DICPCG:  Solving for G, Initial residual = 1, Final residual = 0, No Iterations 1
DILUPBiCG:  Solving for hs, Initial residual = 1, Final residual = 0, No Iterations 1
GAMG:  Solving for p_rgh, Initial residual = 1, Final residual = 0, No Iterations 1
diagonal:  Solving for rho, Initial residual = 0, Final residual = 0, No Iterations 0
time step continuity errors : sum local = 6.51122e-12, global = 6.51122e-12, cumulative = -2.83087e-07
GAMG:  Solving for p_rgh, Initial residual = 1, Final residual = 0, No Iterations 1
diagonal:  Solving for rho, Initial residual = 0, Final residual = 0, No Iterations 0
time step continuity errors : sum local = 5.74679e-14, global = -5.74679e-14, cumulative = -2.83087e-07
DILUPBiCG:  Solving for k, Initial residual = 1, Final residual = 0, No Iterations 1

Evolving reactingOneDim for region panelRegion
diagonal:  Solving for rho, Initial residual = 0, Final residual = 0, No Iterations 0
diagonal:  Solving for Yv, Initial residual = 0, Final residual = 0, No Iterations 0
DICPCG:  Solving for T, Initial residual = 0.00120454, Final residual = 1.06369e-19, No Iterations 1
pyrolysis min/max(T) = 446.596, 982.182

Pyrolysis: reactingOneDim
    Total gas mass produced  [kg] = 0.939439
    Total solid mass lost    [kg] = -0.939439
    Total pyrolysis gases  [kg/s] = 0.00858086
    Total heat release rate [J/s] = -13447.3

ExecutionTime = 2.76 s  ClockTime = 3 s

Courant Number mean: 0 max: 0
Time = 100

diagonal:  Solving for rho, Initial residual = 0, Final residual = 0, No Iterations 0
DILUPBiCG:  Solving for Ux, Initial residual = 1, Final residual = 1.11852e-16, No Iterations 1
DILUPBiCG:  Solving for Uz, Initial residual = 1, Final residual = 0, No Iterations 1
DILUPBiCG:  Solving for O2, Initial residual = 1, Final residual = 0, No Iterations 1
max of O2 = 0.0142539
min of O2 = 0.00529309
DILUPBiCG:  Solving for H2O, Initial residual = 1, Final residual = 0, No Iterations 1
max of H2O = 0.0907308
min of H2O = 0.0336922
DILUPBiCG:  Solving for CH4, Initial residual = 1, Final residual = 0, No Iterations 1
max of CH4 = 0.705451
min of CH4 = 0.2068
DILUPBiCG:  Solving for CO2, Initial residual = 1, Final residual = 0, No Iterations 1
max of CO2 = 0.110824
min of CO2 = 0.0411537
max of N2 = 0.582165
min of N2 = 0
DICPCG:  Solving for G, Initial residual = 1, Final residual = 0, No Iterations 1
DILUPBiCG:  Solving for hs, Initial residual = 1, Final residual = 0, No Iterations 1
GAMG:  Solving for p_rgh, Initial residual = 1, Final residual = 0, No Iterations 1
diagonal:  Solving for rho, Initial residual = 0, Final residual = 0, No Iterations 0
time step continuity errors : sum local = 1.98346e-13, global = 1.98346e-13, cumulative = -2.83087e-07
GAMG:  Solving for p_rgh, Initial residual = 1, Final residual = 0, No Iterations 1
diagonal:  Solving for rho, Initial residual = 0, Final residual = 0, No Iterations 0
time step continuity errors : sum local = 7.24957e-12, global = -7.24957e-12, cumulative = -2.83094e-07
DILUPBiCG:  Solving for k, Initial residual = 1, Final residual = 0, No Iterations 1

Evolving reactingOneDim for region panelRegion
diagonal:  Solving for rho, Initial residual = 0, Final residual = 0, No Iterations 0
diagonal:  Solving for Yv, Initial residual = 0, Final residual = 0, No Iterations 0
DICPCG:  Solving for T, Initial residual = 0.0011983, Final residual = 4.43401e-20, No Iterations 1
pyrolysis min/max(T) = 446.913, 982.243

Pyrolysis: reactingOneDim
    Total gas mass produced  [kg] = 0.941154
    Total solid mass lost    [kg] = -0.941154
    Total pyrolysis gases  [kg/s] = 0.00857522
    Total heat release rate [J/s] = -13438.4

ExecutionTime = 2.77 s  ClockTime = 3 s

End

