/*---------------------------------------------------------------------------*\
| =========                 |                                                 |
| \\      /  F ield         | OpenFOAM: The Open Source CFD Toolbox           |
|  \\    /   O peration     | Version:  1.7.x                                 |
|   \\  /    A nd           | Web:      www.OpenFOAM.com                      |
|    \\/     M anipulation  |                                                 |
\*---------------------------------------------------------------------------*/
Build  : 1.7.x-e90828cd94a4
Exec   : fireFoam -parallel
Date   : Mar 29 2011
Time   : 17:05:18
Host   : wangyUbuntu
PID    : 14058
Case   : /home/wangy/OpenFOAM/wangy-1.7.x/run/fireFoam/testBatteryFireFOAM/wallFireSpread2D
nProcs : 2
Slaves : 
1
(
wangyUbuntu.14059
)

Pstream initialized with:
    floatTransfer     : 0
    nProcsSimpleSum   : 0
    commsType         : nonBlocking
SigFpe : Enabling floating point exception trapping (FOAM_SIGFPE).

// * * * * * * * * * * * * * * * * * * * * * * * * * * * * * * * * * * * * * //
FireFOAM Build Version:  b9651e83c7062afe528a804dea39861c9759afb7
FireFOAM Build Time Stamp:  Tue Mar 29 15:29:10 EDT 2011
****************************************************
Create time

Create mesh for time = 0


Reading g
Reading thermophysical properties

Selecting thermodynamics package hsPsiMixtureThermoNew<singleStepReactingMixture<gasThermoPhysics>>
Selecting chemistryReader foamChemistryReader
Fuel heat of combustion :4.63574e+07
Mole based specieStoichCoeffs: 5(-5 4 -1 3 0)
stoichiometric air-fuel ratio :3.62829
stoichiometric oxygen-fuel ratio :3.62829
Max products: 5(0 0.353083 0 0.646917 0)
mass based specieStoichCoeffs: 5(-3.62829 1.63418 -1 2.99414 0)
Creating component thermo properties:
    multi-component carrier - 5 species
    liquids - 1 components
    solids - 0 components
Reading field p_rgh

Reading field U

Reading/calculating face flux field phi

Creating turbulence model

Selecting turbulence model type LESModel
Selecting LES turbulence model oneEqEddy
--> FOAM Warning : 
    From function cubeRootVolDelta::calcDelta()
    in file cubeRootVolDelta/cubeRootVolDelta.C at line 52
    Case is 2D, LES is not strictly applicable

oneEqEddyCoeffs
{
    Prt             1;
    ce              1.048;
    ck              0.094;
}

Creating combustion model

Selecting combustion model infinitelyFastChemistry
stoichiometric mixture fraction is = 0.216062
Creating field DpDt

Calculating field g.h

Selecting radiationModel fvDOM
Selecting absorptionEmissionModel greyMeanAbsorptionEmission
Selecting scatterModel constantScatter
fvDOM : Allocated 8 rays with average orientation:
	I0	(0.460076 1.11072 5.88935e-33)
	I1	(1.11072 0.460076 5.88935e-33)
	I2	(1.11072 -0.460076 5.88935e-33)
	I3	(0.460076 -1.11072 5.88935e-33)
	I4	(-0.460076 -1.11072 5.88935e-33)
	I5	(-1.11072 -0.460076 5.88935e-33)
	I6	(-1.11072 0.460076 5.88935e-33)
	I7	(-0.460076 1.11072 5.88935e-33)

Creating pyrolysis model

Selecting pyrolysisModel reactingOneDim
Selecting solidChemistryModel "ODESolidChemistryModel<constSolidThermoPhysics>gasThermoPhysics"
ODESolidChemistryModel: Number of solids = 2 and reactions = 1
Number of gases from pyrolysis = 1
Reaction 0
irreversibleSolidArrheniusReaction
    v = char +  gas
    Reaction order: 4.86
(7.83e+10 15274.6 400)
Selecting ODE solver SIBS

Constructing reacting cloud
Selecting DispersionModel none
Selecting DragModel SphereDrag
Selecting InjectionModel ConeInjection
    Constructing 2-D injection
Selecting pdfType RosinRammler
Selecting PatchInteractionModel StandardWallInteraction
Selecting PostProcessingModel none
Selecting SurfaceFilmModel ThermoSurfaceFilm
    Applying absorb interaction model
Selecting U IntegrationScheme Euler
Selecting HeatTransferModel RanzMarshall
Selecting T IntegrationScheme Analytical
Selecting CompositionModel SinglePhaseMixture
Selecting PhaseChangeModel LiquidEvaporation

Constructing surface film model
Selecting surfaceFilmModel none
Courant Number mean: 0 max: 0

Starting time loop

Courant Number mean: 0 max: 0
deltaT = 0.0011976
cellSource HRR:
    total cells  = 800
    total volume = 0.4



faceSource patchBurner:
    total faces  = 4
    total area   = 0.04


faceSource patchPanel:
    total faces  = 10
    total area   = 0.1


faceSource patchOutlet:
    total faces  = 20
    total area   = 0.2


faceSource patchPanelSolidRegion:
    total faces  = 10
    total area   = 0.1


Time = 0.0011976

diagonal:  Solving for rho, Initial residual = 0, Final residual = 0, No Iterations 0
DILUPBiCG:  Solving for Ux, Initial residual = 1, Final residual = 2.05601e-10, No Iterations 1
DILUPBiCG:  Solving for Uz, Initial residual = 1, Final residual = 2.12914e-15, No Iterations 2
DILUPBiCG:  Solving for O2, Initial residual = 0.0165783, Final residual = 2.40935e-13, No Iterations 2
max of O2 = 0.23301
min of O2 = 0.23301
DILUPBiCG:  Solving for H2O, Initial residual = 0, Final residual = 0, No Iterations 0
max of H2O = 0
min of H2O = 0
DILUPBiCG:  Solving for C3H8, Initial residual = 0.999999, Final residual = 2.8685e-10, No Iterations 1
max of C3H8 = 1.01501e-10
min of C3H8 = 0
DILUPBiCG:  Solving for CO2, Initial residual = 0, Final residual = 0, No Iterations 0
max of CO2 = 0
min of CO2 = 0
max of N2 = 0.76699
min of N2 = 0
DILUPBiCG:  Solving for hs, Initial residual = 1, Final residual = 2.77384e-10, No Iterations 1
GAMG:  Solving for p_rgh, Initial residual = 0.926731, Final residual = 0.00709749, No Iterations 5
diagonal:  Solving for rho, Initial residual = 0, Final residual = 0, No Iterations 0
time step continuity errors : sum local = 9.03262e-09, global = -4.46432e-10, cumulative = -4.46432e-10
GAMG:  Solving for p_rgh, Initial residual = 0.0307076, Final residual = 3.67053e-07, No Iterations 11
diagonal:  Solving for rho, Initial residual = 0, Final residual = 0, No Iterations 0
time step continuity errors : sum local = 5.01905e-12, global = -1.24597e-13, cumulative = -4.46557e-10
DILUPBiCG:  Solving for k, Initial residual = 1, Final residual = 1.66663e-11, No Iterations 2

Evolving reactingOneDim for region panelRegion
diagonal:  Solving for rho, Initial residual = 0, Final residual = 0, No Iterations 0
diagonal:  Solving for Yv, Initial residual = 0, Final residual = 0, No Iterations 0
DICPCG:  Solving for T, Initial residual = 0.999354, Final residual = 2.21296e-16, No Iterations 1
pyrolysis min/max(T) = 293, 293

Pyrolysis: reactingOneDim
    Total gas mass produced  [kg] = 0
    Total solid mass lost    [kg] = 0
    Total pyrolysis gases  [kg/s] = 0
    Total heat release rate [J/s] = 0

ExecutionTime = 0.08 s  ClockTime = 0 s

Courant Number mean: 8.80175e-06 max: 0.000539904
deltaT = 0.00143023
Time = 0.00262784

diagonal:  Solving for rho, Initial residual = 0, Final residual = 0, No Iterations 0
DILUPBiCG:  Solving for Ux, Initial residual = 0.348842, Final residual = 1.39113e-11, No Iterations 2
DILUPBiCG:  Solving for Uz, Initial residual = 0.340458, Final residual = 4.12216e-12, No Iterations 2
DILUPBiCG:  Solving for O2, Initial residual = 1, Final residual = 8.51366e-09, No Iterations 1
max of O2 = 0.23301
min of O2 = 0.0244606
DILUPBiCG:  Solving for H2O, Initial residual = 0.999995, Final residual = 1.85956e-09, No Iterations 1
max of H2O = 3.26202e-16
min of H2O = 0
DILUPBiCG:  Solving for C3H8, Initial residual = 1, Final residual = 4.63346e-09, No Iterations 1
max of C3H8 = 0.895023
min of C3H8 = 0
DILUPBiCG:  Solving for CO2, Initial residual = 0.999997, Final residual = 1.85957e-09, No Iterations 1
max of CO2 = 5.97665e-16
min of CO2 = 0
max of N2 = 0.76699
min of N2 = 0
DILUPBiCG:  Solving for hs, Initial residual = 0.996922, Final residual = 6.8709e-11, No Iterations 2
GAMG:  Solving for p_rgh, Initial residual = 0.201859, Final residual = 0.00148443, No Iterations 4
diagonal:  Solving for rho, Initial residual = 0, Final residual = 0, No Iterations 0
time step continuity errors : sum local = 3.75287e-08, global = 6.07011e-10, cumulative = 1.60454e-10
GAMG:  Solving for p_rgh, Initial residual = 0.0164009, Final residual = 8.28156e-07, No Iterations 10
diagonal:  Solving for rho, Initial residual = 0, Final residual = 0, No Iterations 0
time step continuity errors : sum local = 3.92804e-11, global = 1.40358e-11, cumulative = 1.7449e-10
DILUPBiCG:  Solving for k, Initial residual = 0.978557, Final residual = 3.8129e-11, No Iterations 2

Evolving reactingOneDim for region panelRegion
diagonal:  Solving for rho, Initial residual = 0, Final residual = 0, No Iterations 0
diagonal:  Solving for Yv, Initial residual = 0, Final residual = 0, No Iterations 0
DICPCG:  Solving for T, Initial residual = 0.964501, Final residual = 4.69673e-17, No Iterations 1
pyrolysis min/max(T) = 293, 293

Pyrolysis: reactingOneDim
    Total gas mass produced  [kg] = 0
    Total solid mass lost    [kg] = 4.22141e-18
    Total pyrolysis gases  [kg/s] = 0
    Total heat release rate [J/s] = 0

ExecutionTime = 0.1 s  ClockTime = 0 s

Courant Number mean: 2.02689e-05 max: 0.000472591
deltaT = 0.00170148
Time = 0.00432932

diagonal:  Solving for rho, Initial residual = 0, Final residual = 0, No Iterations 0
DILUPBiCG:  Solving for Ux, Initial residual = 0.278717, Final residual = 8.4114e-11, No Iterations 2
DILUPBiCG:  Solving for Uz, Initial residual = 0.244925, Final residual = 2.25152e-11, No Iterations 2
DILUPBiCG:  Solving for O2, Initial residual = 0.39661, Final residual = 1.74222e-09, No Iterations 1
max of O2 = 0.23301
min of O2 = 0.0236848
DILUPBiCG:  Solving for H2O, Initial residual = 1, Final residual = 5.27228e-09, No Iterations 1
max of H2O = 5.83792e-05
min of H2O = 0
DILUPBiCG:  Solving for C3H8, Initial residual = 0.2217, Final residual = 1.09005e-09, No Iterations 1
max of C3H8 = 0.898302
min of C3H8 = 0
DILUPBiCG:  Solving for CO2, Initial residual = 1, Final residual = 5.27228e-09, No Iterations 1
max of CO2 = 0.000106962
min of CO2 = 0
max of N2 = 0.76699
min of N2 = 0
DILUPBiCG:  Solving for hs, Initial residual = 0.897008, Final residual = 8.50163e-12, No Iterations 2
GAMG:  Solving for p_rgh, Initial residual = 0.18184, Final residual = 0.000997672, No Iterations 5
diagonal:  Solving for rho, Initial residual = 0, Final residual = 0, No Iterations 0
time step continuity errors : sum local = 5.08607e-08, global = -3.04623e-09, cumulative = -2.87174e-09
GAMG:  Solving for p_rgh, Initial residual = 0.000366275, Final residual = 7.52589e-07, No Iterations 6
diagonal:  Solving for rho, Initial residual = 0, Final residual = 0, No Iterations 0
time step continuity errors : sum local = 1.07175e-10, global = -2.54644e-11, cumulative = -2.8972e-09
DILUPBiCG:  Solving for k, Initial residual = 0.962352, Final residual = 4.96929e-10, No Iterations 2

Evolving reactingOneDim for region panelRegion
diagonal:  Solving for rho, Initial residual = 0, Final residual = 0, No Iterations 0
diagonal:  Solving for Yv, Initial residual = 0, Final residual = 0, No Iterations 0
DICPCG:  Solving for T, Initial residual = 0.255667, Final residual = 1.27194e-17, No Iterations 1
pyrolysis min/max(T) = 293, 293

Pyrolysis: reactingOneDim
    Total gas mass produced  [kg] = 0
    Total solid mass lost    [kg] = 1.04294e-17
    Total pyrolysis gases  [kg/s] = 0
    Total heat release rate [J/s] = 0

ExecutionTime = 0.11 s  ClockTime = 0 s

Courant Number mean: 7.99006e-05 max: 0.00131867
deltaT = 0.00203824
Time = 0.00636756

diagonal:  Solving for rho, Initial residual = 0, Final residual = 0, No Iterations 0
DILUPBiCG:  Solving for Ux, Initial residual = 0.344132, Final residual = 1.14332e-09, No Iterations 2
DILUPBiCG:  Solving for Uz, Initial residual = 0.31554, Final residual = 2.43132e-10, No Iterations 2
DILUPBiCG:  Solving for O2, Initial residual = 0.244003, Final residual = 1.10566e-14, No Iterations 2
max of O2 = 0.23301
min of O2 = 0.0236358
DILUPBiCG:  Solving for H2O, Initial residual = 0.346853, Final residual = 1.39667e-15, No Iterations 2
max of H2O = 0.000181524
min of H2O = 0
DILUPBiCG:  Solving for C3H8, Initial residual = 0.126955, Final residual = 4.3304e-16, No Iterations 2
max of C3H8 = 0.8984
min of C3H8 = 0
DILUPBiCG:  Solving for CO2, Initial residual = 0.346853, Final residual = 1.39667e-15, No Iterations 2
max of CO2 = 0.000332587
min of CO2 = 0
max of N2 = 0.76699
min of N2 = 0
DILUPBiCG:  Solving for hs, Initial residual = 0.565706, Final residual = 3.94876e-11, No Iterations 2
GAMG:  Solving for p_rgh, Initial residual = 0.103444, Final residual = 0.000613131, No Iterations 5
diagonal:  Solving for rho, Initial residual = 0, Final residual = 0, No Iterations 0
time step continuity errors : sum local = 1.28173e-07, global = -7.52774e-09, cumulative = -1.04249e-08
GAMG:  Solving for p_rgh, Initial residual = 0.000215888, Final residual = 9.07031e-07, No Iterations 5
diagonal:  Solving for rho, Initial residual = 0, Final residual = 0, No Iterations 0
time step continuity errors : sum local = 5.48556e-10, global = -2.26901e-11, cumulative = -1.04476e-08
DILUPBiCG:  Solving for k, Initial residual = 0.862909, Final residual = 6.65381e-09, No Iterations 2

Evolving reactingOneDim for region panelRegion
diagonal:  Solving for rho, Initial residual = 0, Final residual = 0, No Iterations 0
diagonal:  Solving for Yv, Initial residual = 0, Final residual = 0, No Iterations 0
DICPCG:  Solving for T, Initial residual = 0.379076, Final residual = 1.99883e-17, No Iterations 1
pyrolysis min/max(T) = 293, 293

Pyrolysis: reactingOneDim
    Total gas mass produced  [kg] = 0
    Total solid mass lost    [kg] = 1.71339e-17
    Total pyrolysis gases  [kg/s] = 0
    Total heat release rate [J/s] = 0

ExecutionTime = 0.13 s  ClockTime = 0 s

Courant Number mean: 0.000339646 max: 0.00520257
deltaT = 0.00242041
Time = 0.00878796

diagonal:  Solving for rho, Initial residual = 0, Final residual = 0, No Iterations 0
DILUPBiCG:  Solving for Ux, Initial residual = 0.360054, Final residual = 2.33126e-08, No Iterations 2
DILUPBiCG:  Solving for Uz, Initial residual = 0.323989, Final residual = 5.06985e-09, No Iterations 2
DILUPBiCG:  Solving for O2, Initial residual = 0.173511, Final residual = 7.97125e-14, No Iterations 2
max of O2 = 0.23301
min of O2 = 0.0235533
DILUPBiCG:  Solving for H2O, Initial residual = 0.210005, Final residual = 8.73643e-14, No Iterations 2
max of H2O = 0.000372176
min of H2O = 0
DILUPBiCG:  Solving for C3H8, Initial residual = 0.0919525, Final residual = 3.31417e-14, No Iterations 2
max of C3H8 = 0.898576
min of C3H8 = 0
DILUPBiCG:  Solving for CO2, Initial residual = 0.210005, Final residual = 8.73643e-14, No Iterations 2
max of CO2 = 0.000681898
min of CO2 = 0
max of N2 = 0.76699
min of N2 = 0
DILUPBiCG:  Solving for hs, Initial residual = 0.326967, Final residual = 8.10047e-10, No Iterations 2
GAMG:  Solving for p_rgh, Initial residual = 0.0355486, Final residual = 0.000113959, No Iterations 4
diagonal:  Solving for rho, Initial residual = 0, Final residual = 0, No Iterations 0
time step continuity errors : sum local = 9.68269e-08, global = -3.98293e-09, cumulative = -1.44306e-08
GAMG:  Solving for p_rgh, Initial residual = 8.57382e-05, Final residual = 3.72858e-07, No Iterations 4
diagonal:  Solving for rho, Initial residual = 0, Final residual = 0, No Iterations 0
time step continuity errors : sum local = 4.79885e-10, global = -2.43887e-11, cumulative = -1.4455e-08
DILUPBiCG:  Solving for k, Initial residual = 0.548071, Final residual = 9.78982e-12, No Iterations 3

Evolving reactingOneDim for region panelRegion
diagonal:  Solving for rho, Initial residual = 0, Final residual = 0, No Iterations 0
diagonal:  Solving for Yv, Initial residual = 0, Final residual = 0, No Iterations 0
DICPCG:  Solving for T, Initial residual = 0.419731, Final residual = 2.00753e-17, No Iterations 1
pyrolysis min/max(T) = 293, 293

Pyrolysis: reactingOneDim
    Total gas mass produced  [kg] = 0
    Total solid mass lost    [kg] = 2.45835e-17
    Total pyrolysis gases  [kg/s] = 0
    Total heat release rate [J/s] = 0

ExecutionTime = 0.14 s  ClockTime = 0 s

Courant Number mean: 0.000850212 max: 0.0106781
deltaT = 0.00289715
Time = 0.0116851

diagonal:  Solving for rho, Initial residual = 0, Final residual = 0, No Iterations 0
DILUPBiCG:  Solving for Ux, Initial residual = 0.326601, Final residual = 4.98125e-11, No Iterations 3
DILUPBiCG:  Solving for Uz, Initial residual = 0.263712, Final residual = 2.84534e-08, No Iterations 2
DILUPBiCG:  Solving for O2, Initial residual = 0.135569, Final residual = 1.25924e-12, No Iterations 2
max of O2 = 0.23301
min of O2 = 0.0234792
DILUPBiCG:  Solving for H2O, Initial residual = 0.152221, Final residual = 1.45566e-12, No Iterations 2
max of H2O = 0.000633173
min of H2O = 0
DILUPBiCG:  Solving for C3H8, Initial residual = 0.0803211, Final residual = 6.09641e-13, No Iterations 2
max of C3H8 = 0.898649
min of C3H8 = 0
DILUPBiCG:  Solving for CO2, Initial residual = 0.152221, Final residual = 1.45566e-12, No Iterations 2
max of CO2 = 0.00116009
min of CO2 = 0
max of N2 = 0.76699
min of N2 = 0
DILUPBiCG:  Solving for hs, Initial residual = 0.187882, Final residual = 5.75289e-10, No Iterations 2
GAMG:  Solving for p_rgh, Initial residual = 0.0208221, Final residual = 0.000176208, No Iterations 5
diagonal:  Solving for rho, Initial residual = 0, Final residual = 0, No Iterations 0
time step continuity errors : sum local = 3.1423e-07, global = 2.09171e-08, cumulative = 6.46214e-09
GAMG:  Solving for p_rgh, Initial residual = 0.000640536, Final residual = 6.36262e-07, No Iterations 7
diagonal:  Solving for rho, Initial residual = 0, Final residual = 0, No Iterations 0
time step continuity errors : sum local = 7.26441e-10, global = -1.9244e-11, cumulative = 6.4429e-09
DILUPBiCG:  Solving for k, Initial residual = 0.292842, Final residual = 2.18296e-11, No Iterations 3

Evolving reactingOneDim for region panelRegion
diagonal:  Solving for rho, Initial residual = 0, Final residual = 0, No Iterations 0
diagonal:  Solving for Yv, Initial residual = 0, Final residual = 0, No Iterations 0
DICPCG:  Solving for T, Initial residual = 0.24809, Final residual = 2.16683e-17, No Iterations 1
pyrolysis min/max(T) = 293, 293

Pyrolysis: reactingOneDim
    Total gas mass produced  [kg] = 0
    Total solid mass lost    [kg] = 3.12881e-17
    Total pyrolysis gases  [kg/s] = 0
    Total heat release rate [J/s] = 0

ExecutionTime = 0.15 s  ClockTime = 0 s

Courant Number mean: 0.00133638 max: 0.014618
deltaT = 0.00342391
Time = 0.015109

diagonal:  Solving for rho, Initial residual = 0, Final residual = 0, No Iterations 0
DILUPBiCG:  Solving for Ux, Initial residual = 0.205136, Final residual = 9.63534e-11, No Iterations 3
DILUPBiCG:  Solving for Uz, Initial residual = 0.117236, Final residual = 2.95396e-08, No Iterations 2
DILUPBiCG:  Solving for O2, Initial residual = 0.113198, Final residual = 1.1913e-12, No Iterations 2
max of O2 = 0.23301
min of O2 = 0.0234132
DILUPBiCG:  Solving for H2O, Initial residual = 0.123131, Final residual = 1.84242e-12, No Iterations 2
max of H2O = 0.000976382
min of H2O = 0
DILUPBiCG:  Solving for C3H8, Initial residual = 0.071915, Final residual = 1.12016e-12, No Iterations 2
max of C3H8 = 0.898609
min of C3H8 = 0
DILUPBiCG:  Solving for CO2, Initial residual = 0.123131, Final residual = 1.84242e-12, No Iterations 2
max of CO2 = 0.00178892
min of CO2 = 0
max of N2 = 0.76699
min of N2 = 0
DILUPBiCG:  Solving for hs, Initial residual = 0.136732, Final residual = 1.30224e-09, No Iterations 2
GAMG:  Solving for p_rgh, Initial residual = 0.0353692, Final residual = 0.000241534, No Iterations 4
diagonal:  Solving for rho, Initial residual = 0, Final residual = 0, No Iterations 0
time step continuity errors : sum local = 3.76699e-07, global = 3.0826e-08, cumulative = 3.72689e-08
GAMG:  Solving for p_rgh, Initial residual = 0.0022805, Final residual = 3.18012e-07, No Iterations 7
diagonal:  Solving for rho, Initial residual = 0, Final residual = 0, No Iterations 0
time step continuity errors : sum local = 6.0293e-11, global = -4.98382e-12, cumulative = 3.72639e-08
DILUPBiCG:  Solving for k, Initial residual = 0.196865, Final residual = 3.33448e-11, No Iterations 3

Evolving reactingOneDim for region panelRegion
diagonal:  Solving for rho, Initial residual = 0, Final residual = 0, No Iterations 0
diagonal:  Solving for Yv, Initial residual = 0, Final residual = 0, No Iterations 0
DICPCG:  Solving for T, Initial residual = 0.0887078, Final residual = 8.93853e-18, No Iterations 1
pyrolysis min/max(T) = 293, 293

Pyrolysis: reactingOneDim
    Total gas mass produced  [kg] = 0
    Total solid mass lost    [kg] = 3.94826e-17
    Total pyrolysis gases  [kg/s] = 0
    Total heat release rate [J/s] = 0

ExecutionTime = 0.17 s  ClockTime = 0 s

Courant Number mean: 0.00163812 max: 0.0185612
deltaT = 0.00401937
Time = 0.0191284

diagonal:  Solving for rho, Initial residual = 0, Final residual = 0, No Iterations 0
DILUPBiCG:  Solving for Ux, Initial residual = 0.033318, Final residual = 2.79388e-08, No Iterations 2
DILUPBiCG:  Solving for Uz, Initial residual = 0.0224874, Final residual = 5.15218e-09, No Iterations 2
DILUPBiCG:  Solving for O2, Initial residual = 0.0986341, Final residual = 1.67211e-11, No Iterations 2
max of O2 = 0.23301
min of O2 = 0.023351
DILUPBiCG:  Solving for H2O, Initial residual = 0.10486, Final residual = 1.55343e-11, No Iterations 2
max of H2O = 0.0014144
min of H2O = 0
DILUPBiCG:  Solving for C3H8, Initial residual = 0.0661542, Final residual = 5.40916e-12, No Iterations 2
max of C3H8 = 0.898461
min of C3H8 = 0
DILUPBiCG:  Solving for CO2, Initial residual = 0.10486, Final residual = 1.55343e-11, No Iterations 2
max of CO2 = 0.00259145
min of CO2 = 0
max of N2 = 0.76699
min of N2 = 0
DILUPBiCG:  Solving for hs, Initial residual = 0.11317, Final residual = 2.46195e-09, No Iterations 2
GAMG:  Solving for p_rgh, Initial residual = 0.0920101, Final residual = 0.000552243, No Iterations 3
diagonal:  Solving for rho, Initial residual = 0, Final residual = 0, No Iterations 0
time step continuity errors : sum local = 1.5821e-07, global = -1.3786e-08, cumulative = 2.34779e-08
GAMG:  Solving for p_rgh, Initial residual = 0.000801293, Final residual = 4.33009e-07, No Iterations 6
diagonal:  Solving for rho, Initial residual = 0, Final residual = 0, No Iterations 0
time step continuity errors : sum local = 1.16546e-10, global = -2.42985e-12, cumulative = 2.34754e-08
DILUPBiCG:  Solving for k, Initial residual = 0.153189, Final residual = 5.25661e-11, No Iterations 3

Evolving reactingOneDim for region panelRegion
diagonal:  Solving for rho, Initial residual = 0, Final residual = 0, No Iterations 0
diagonal:  Solving for Yv, Initial residual = 0, Final residual = 0, No Iterations 0
DICPCG:  Solving for T, Initial residual = 0.0279218, Final residual = 1.95139e-18, No Iterations 1
pyrolysis min/max(T) = 293, 293

Pyrolysis: reactingOneDim
    Total gas mass produced  [kg] = 0
    Total solid mass lost    [kg] = 4.96636e-17
    Total pyrolysis gases  [kg/s] = 0
    Total heat release rate [J/s] = 0

ExecutionTime = 0.18 s  ClockTime = 0 s

Courant Number mean: 0.00191841 max: 0.0228498
deltaT = 0.00475978
Time = 0.0238882

diagonal:  Solving for rho, Initial residual = 0, Final residual = 0, No Iterations 0
DILUPBiCG:  Solving for Ux, Initial residual = 0.0411069, Final residual = 1.75161e-08, No Iterations 2
DILUPBiCG:  Solving for Uz, Initial residual = 0.0262146, Final residual = 1.27516e-08, No Iterations 2
DILUPBiCG:  Solving for O2, Initial residual = 0.0888135, Final residual = 1.04055e-11, No Iterations 2
max of O2 = 0.23301
min of O2 = 0.0232934
DILUPBiCG:  Solving for H2O, Initial residual = 0.0924512, Final residual = 1.63972e-11, No Iterations 2
max of H2O = 0.00196166
min of H2O = 0
DILUPBiCG:  Solving for C3H8, Initial residual = 0.0630981, Final residual = 1.94603e-11, No Iterations 2
max of C3H8 = 0.898184
min of C3H8 = 0
DILUPBiCG:  Solving for CO2, Initial residual = 0.0924512, Final residual = 1.63972e-11, No Iterations 2
max of CO2 = 0.00359415
min of CO2 = 0
max of N2 = 0.76699
min of N2 = 0
DILUPBiCG:  Solving for hs, Initial residual = 0.0948743, Final residual = 1.0995e-10, No Iterations 2
GAMG:  Solving for p_rgh, Initial residual = 0.0897223, Final residual = 0.000371263, No Iterations 4
diagonal:  Solving for rho, Initial residual = 0, Final residual = 0, No Iterations 0
time step continuity errors : sum local = 1.38722e-07, global = 7.18629e-09, cumulative = 3.06617e-08
GAMG:  Solving for p_rgh, Initial residual = 0.00213867, Final residual = 3.31681e-07, No Iterations 7
diagonal:  Solving for rho, Initial residual = 0, Final residual = 0, No Iterations 0
time step continuity errors : sum local = 4.75658e-11, global = -4.3674e-12, cumulative = 3.06574e-08
DILUPBiCG:  Solving for k, Initial residual = 0.127908, Final residual = 9.30385e-11, No Iterations 3

Evolving reactingOneDim for region panelRegion
diagonal:  Solving for rho, Initial residual = 0, Final residual = 0, No Iterations 0
diagonal:  Solving for Yv, Initial residual = 0, Final residual = 0, No Iterations 0
DICPCG:  Solving for T, Initial residual = 0.0551332, Final residual = 1.06857e-18, No Iterations 1
pyrolysis min/max(T) = 293, 293

Pyrolysis: reactingOneDim
    Total gas mass produced  [kg] = 0
    Total solid mass lost    [kg] = 6.15829e-17
    Total pyrolysis gases  [kg/s] = 0
    Total heat release rate [J/s] = 0

ExecutionTime = 0.19 s  ClockTime = 0 s

Courant Number mean: 0.00234529 max: 0.0275156
deltaT = 0.00568103
Time = 0.0295692

diagonal:  Solving for rho, Initial residual = 0, Final residual = 0, No Iterations 0
DILUPBiCG:  Solving for Ux, Initial residual = 0.0224352, Final residual = 6.92309e-08, No Iterations 2
DILUPBiCG:  Solving for Uz, Initial residual = 0.0280406, Final residual = 2.17979e-08, No Iterations 2
DILUPBiCG:  Solving for O2, Initial residual = 0.0825643, Final residual = 2.85084e-11, No Iterations 2
max of O2 = 0.23301
min of O2 = 0.0232262
DILUPBiCG:  Solving for H2O, Initial residual = 0.0838097, Final residual = 4.47992e-11, No Iterations 2
max of H2O = 0.00263788
min of H2O = 0
DILUPBiCG:  Solving for C3H8, Initial residual = 0.0616096, Final residual = 1.47075e-09, No Iterations 2
max of C3H8 = 0.89782
min of C3H8 = 0
DILUPBiCG:  Solving for CO2, Initial residual = 0.0838097, Final residual = 4.47992e-11, No Iterations 2
max of CO2 = 0.0048331
min of CO2 = 0
max of N2 = 0.76699
min of N2 = 0
GAMG:  Solving for ILambda_0_0, Initial residual = 1, Final residual = 7.66031e-16, No Iterations 1
GAMG:  Solving for ILambda_1_0, Initial residual = 1, Final residual = 7.20008e-16, No Iterations 1
GAMG:  Solving for ILambda_2_0, Initial residual = 1, Final residual = 7.20008e-16, No Iterations 1
GAMG:  Solving for ILambda_3_0, Initial residual = 1, Final residual = 5.26114e-16, No Iterations 1
GAMG:  Solving for ILambda_4_0, Initial residual = 1, Final residual = 1.85429e-16, No Iterations 1
GAMG:  Solving for ILambda_5_0, Initial residual = 1, Final residual = 1.06669e-16, No Iterations 1
GAMG:  Solving for ILambda_6_0, Initial residual = 1, Final residual = 1.74966e-16, No Iterations 1
GAMG:  Solving for ILambda_7_0, Initial residual = 1, Final residual = 1.81411e-16, No Iterations 1
Radiation solver iter: 1
GAMG:  Solving for ILambda_0_0, Initial residual = 0.119486, Final residual = 1.70576e-16, No Iterations 1
GAMG:  Solving for ILambda_1_0, Initial residual = 0.147041, Final residual = 5.25486e-16, No Iterations 1
GAMG:  Solving for ILambda_2_0, Initial residual = 0.147041, Final residual = 5.25486e-16, No Iterations 1
GAMG:  Solving for ILambda_3_0, Initial residual = 0.119486, Final residual = 2.3037e-16, No Iterations 1
GAMG:  Solving for ILambda_4_0, Initial residual = 0.144424, Final residual = 6.67872e-17, No Iterations 1
GAMG:  Solving for ILambda_5_0, Initial residual = 0.197815, Final residual = 1.30425e-16, No Iterations 1
GAMG:  Solving for ILambda_6_0, Initial residual = 0.197815, Final residual = 5.49756e-17, No Iterations 1
GAMG:  Solving for ILambda_7_0, Initial residual = 0.144424, Final residual = 6.59636e-18, No Iterations 1
Radiation solver iter: 2
GAMG:  Solving for ILambda_0_0, Initial residual = 0.0665953, Final residual = 2.60628e-16, No Iterations 1
GAMG:  Solving for ILambda_1_0, Initial residual = 0.0773087, Final residual = 3.64842e-16, No Iterations 1
GAMG:  Solving for ILambda_2_0, Initial residual = 0.0773087, Final residual = 3.64842e-16, No Iterations 1
GAMG:  Solving for ILambda_3_0, Initial residual = 0.0665953, Final residual = 2.65037e-16, No Iterations 1
GAMG:  Solving for ILambda_4_0, Initial residual = 0.067173, Final residual = 9.86761e-17, No Iterations 1
GAMG:  Solving for ILambda_5_0, Initial residual = 0.08862, Final residual = 1.16118e-17, No Iterations 1
GAMG:  Solving for ILambda_6_0, Initial residual = 0.08862, Final residual = 4.2869e-17, No Iterations 1
GAMG:  Solving for ILambda_7_0, Initial residual = 0.067173, Final residual = 4.39852e-17, No Iterations 1
Radiation solver iter: 3
GAMG:  Solving for ILambda_0_0, Initial residual = 0.0268475, Final residual = 2.3074e-16, No Iterations 1
GAMG:  Solving for ILambda_1_0, Initial residual = 0.0293044, Final residual = 4.1969e-16, No Iterations 1
GAMG:  Solving for ILambda_2_0, Initial residual = 0.0293044, Final residual = 4.1969e-16, No Iterations 1
GAMG:  Solving for ILambda_3_0, Initial residual = 0.0268475, Final residual = 2.83693e-16, No Iterations 1
GAMG:  Solving for ILambda_4_0, Initial residual = 0.0200086, Final residual = 1.32025e-16, No Iterations 1
GAMG:  Solving for ILambda_5_0, Initial residual = 0.0253009, Final residual = 2.85078e-17, No Iterations 1
GAMG:  Solving for ILambda_6_0, Initial residual = 0.0253009, Final residual = 7.66586e-17, No Iterations 1
GAMG:  Solving for ILambda_7_0, Initial residual = 0.0200086, Final residual = 7.12529e-17, No Iterations 1
Radiation solver iter: 4
GAMG:  Solving for ILambda_0_0, Initial residual = 0.00752982, Final residual = 2.42785e-16, No Iterations 1
GAMG:  Solving for ILambda_1_0, Initial residual = 0.00862846, Final residual = 3.34751e-16, No Iterations 1
GAMG:  Solving for ILambda_2_0, Initial residual = 0.00862846, Final residual = 3.34751e-16, No Iterations 1
GAMG:  Solving for ILambda_3_0, Initial residual = 0.00752982, Final residual = 1.97655e-16, No Iterations 1
GAMG:  Solving for ILambda_4_0, Initial residual = 0.00899954, Final residual = 1.01347e-16, No Iterations 1
GAMG:  Solving for ILambda_5_0, Initial residual = 0.011408, Final residual = 6.34149e-17, No Iterations 1
GAMG:  Solving for ILambda_6_0, Initial residual = 0.011408, Final residual = 7.82001e-17, No Iterations 1
GAMG:  Solving for ILambda_7_0, Initial residual = 0.00899954, Final residual = 5.32768e-17, No Iterations 1
Radiation solver iter: 5
DILUPBiCG:  Solving for hs, Initial residual = 0.0846023, Final residual = 1.36895e-10, No Iterations 2
GAMG:  Solving for p_rgh, Initial residual = 0.107826, Final residual = 0.000376492, No Iterations 5
diagonal:  Solving for rho, Initial residual = 0, Final residual = 0, No Iterations 0
time step continuity errors : sum local = 7.27169e-08, global = 5.72078e-09, cumulative = 3.63781e-08
GAMG:  Solving for p_rgh, Initial residual = 0.00075124, Final residual = 9.66859e-07, No Iterations 5
diagonal:  Solving for rho, Initial residual = 0, Final residual = 0, No Iterations 0
time step continuity errors : sum local = 3.07411e-10, global = 2.088e-11, cumulative = 3.6399e-08
DILUPBiCG:  Solving for k, Initial residual = 0.11063, Final residual = 1.67396e-10, No Iterations 3

Evolving reactingOneDim for region panelRegion
diagonal:  Solving for rho, Initial residual = 0, Final residual = 0, No Iterations 0
diagonal:  Solving for Yv, Initial residual = 0, Final residual = 0, No Iterations 0
DICPCG:  Solving for T, Initial residual = 0.430612, Final residual = 5.20281e-17, No Iterations 1
pyrolysis min/max(T) = 293, 293.001

Pyrolysis: reactingOneDim
    Total gas mass produced  [kg] = 0
    Total solid mass lost    [kg] = 7.69786e-17
    Total pyrolysis gases  [kg/s] = 0
    Total heat release rate [J/s] = 0

ExecutionTime = 0.23 s  ClockTime = 0 s

Courant Number mean: 0.00288216 max: 0.0325266
deltaT = 0.00655503
Time = 0.0361242

diagonal:  Solving for rho, Initial residual = 0, Final residual = 0, No Iterations 0
DILUPBiCG:  Solving for Ux, Initial residual = 0.0276523, Final residual = 8.23889e-08, No Iterations 2
DILUPBiCG:  Solving for Uz, Initial residual = 0.0125219, Final residual = 1.29424e-08, No Iterations 2
DILUPBiCG:  Solving for O2, Initial residual = 0.0772547, Final residual = 6.31742e-11, No Iterations 2
max of O2 = 0.23301
min of O2 = 0.0231285
DILUPBiCG:  Solving for H2O, Initial residual = 0.0774069, Final residual = 9.55763e-11, No Iterations 2
max of H2O = 0.00347095
min of H2O = 0
DILUPBiCG:  Solving for C3H8, Initial residual = 0.0579157, Final residual = 9.75199e-11, No Iterations 2
max of C3H8 = 0.897427
min of C3H8 = 0
DILUPBiCG:  Solving for CO2, Initial residual = 0.0774069, Final residual = 9.55763e-11, No Iterations 2
max of CO2 = 0.00635945
min of CO2 = 0
max of N2 = 0.76699
min of N2 = 0
DILUPBiCG:  Solving for hs, Initial residual = 0.0773575, Final residual = 1.09121e-10, No Iterations 2
GAMG:  Solving for p_rgh, Initial residual = 0.0287906, Final residual = 0.000199107, No Iterations 5
diagonal:  Solving for rho, Initial residual = 0, Final residual = 0, No Iterations 0
time step continuity errors : sum local = 8.39679e-08, global = -7.36326e-09, cumulative = 2.90358e-08
GAMG:  Solving for p_rgh, Initial residual = 0.00048672, Final residual = 3.17787e-07, No Iterations 6
diagonal:  Solving for rho, Initial residual = 0, Final residual = 0, No Iterations 0
time step continuity errors : sum local = 1.21549e-10, global = -8.62833e-12, cumulative = 2.90271e-08
DILUPBiCG:  Solving for k, Initial residual = 0.100576, Final residual = 2.91575e-10, No Iterations 3

Evolving reactingOneDim for region panelRegion
diagonal:  Solving for rho, Initial residual = 0, Final residual = 0, No Iterations 0
diagonal:  Solving for Yv, Initial residual = 0, Final residual = 0, No Iterations 0
DICPCG:  Solving for T, Initial residual = 0.222209, Final residual = 5.46933e-18, No Iterations 1
pyrolysis min/max(T) = 293, 293.001

Pyrolysis: reactingOneDim
    Total gas mass produced  [kg] = 0
    Total solid mass lost    [kg] = 9.28709e-17
    Total pyrolysis gases  [kg/s] = 0
    Total heat release rate [J/s] = 0

ExecutionTime = 0.24 s  ClockTime = 0 s

Courant Number mean: 0.00346186 max: 0.0378422
deltaT = 0.00780361
Time = 0.0439278

diagonal:  Solving for rho, Initial residual = 0, Final residual = 0, No Iterations 0
DILUPBiCG:  Solving for Ux, Initial residual = 0.0312688, Final residual = 3.87605e-10, No Iterations 3
DILUPBiCG:  Solving for Uz, Initial residual = 0.0243187, Final residual = 4.18166e-08, No Iterations 2
DILUPBiCG:  Solving for O2, Initial residual = 0.0729411, Final residual = 1.78487e-10, No Iterations 2
max of O2 = 0.23301
min of O2 = 0.0229916
DILUPBiCG:  Solving for H2O, Initial residual = 0.0724742, Final residual = 2.68248e-10, No Iterations 2
max of H2O = 0.00448222
min of H2O = 0
DILUPBiCG:  Solving for C3H8, Initial residual = 0.0578816, Final residual = 1.742e-10, No Iterations 2
max of C3H8 = 0.89702
min of C3H8 = 0
DILUPBiCG:  Solving for CO2, Initial residual = 0.0724742, Final residual = 2.68248e-10, No Iterations 2
max of CO2 = 0.00821229
min of CO2 = 0
max of N2 = 0.76699
min of N2 = 0
DILUPBiCG:  Solving for hs, Initial residual = 0.0726213, Final residual = 2.80795e-10, No Iterations 2
GAMG:  Solving for p_rgh, Initial residual = 0.0408028, Final residual = 0.000225717, No Iterations 5
diagonal:  Solving for rho, Initial residual = 0, Final residual = 0, No Iterations 0
time step continuity errors : sum local = 1.27218e-07, global = 8.48035e-09, cumulative = 3.75075e-08
GAMG:  Solving for p_rgh, Initial residual = 0.00267675, Final residual = 3.43729e-07, No Iterations 7
diagonal:  Solving for rho, Initial residual = 0, Final residual = 0, No Iterations 0
time step continuity errors : sum local = 8.31883e-11, global = 5.80663e-12, cumulative = 3.75133e-08
DILUPBiCG:  Solving for k, Initial residual = 0.0914058, Final residual = 5.02136e-10, No Iterations 3

Evolving reactingOneDim for region panelRegion
diagonal:  Solving for rho, Initial residual = 0, Final residual = 0, No Iterations 0
diagonal:  Solving for Yv, Initial residual = 0, Final residual = 0, No Iterations 0
DICPCG:  Solving for T, Initial residual = 0.183479, Final residual = 2.85284e-17, No Iterations 1
pyrolysis min/max(T) = 293, 293.001

Pyrolysis: reactingOneDim
    Total gas mass produced  [kg] = 0
    Total solid mass lost    [kg] = 1.10005e-16
    Total pyrolysis gases  [kg/s] = 0
    Total heat release rate [J/s] = 0

ExecutionTime = 0.25 s  ClockTime = 0 s

Courant Number mean: 0.00418413 max: 0.0431452
deltaT = 0.00918072
Time = 0.0531086

diagonal:  Solving for rho, Initial residual = 0, Final residual = 0, No Iterations 0
DILUPBiCG:  Solving for Ux, Initial residual = 0.0125099, Final residual = 2.43727e-10, No Iterations 3
DILUPBiCG:  Solving for Uz, Initial residual = 0.0111346, Final residual = 3.99145e-08, No Iterations 2
DILUPBiCG:  Solving for O2, Initial residual = 0.0692547, Final residual = 4.07559e-10, No Iterations 2
max of O2 = 0.23301
min of O2 = 0.0227773
DILUPBiCG:  Solving for H2O, Initial residual = 0.0685309, Final residual = 6.19359e-10, No Iterations 2
max of H2O = 0.0057143
min of H2O = 0
DILUPBiCG:  Solving for C3H8, Initial residual = 0.0563622, Final residual = 3.01068e-10, No Iterations 2
max of C3H8 = 0.896722
min of C3H8 = 0
DILUPBiCG:  Solving for CO2, Initial residual = 0.0685309, Final residual = 6.19359e-10, No Iterations 2
max of CO2 = 0.0104697
min of CO2 = 0
max of N2 = 0.76699
min of N2 = 0
DILUPBiCG:  Solving for hs, Initial residual = 0.0695945, Final residual = 6.88704e-10, No Iterations 2
GAMG:  Solving for p_rgh, Initial residual = 0.0191317, Final residual = 0.000114614, No Iterations 5
diagonal:  Solving for rho, Initial residual = 0, Final residual = 0, No Iterations 0
time step continuity errors : sum local = 3.89776e-08, global = -2.93479e-09, cumulative = 3.45785e-08
GAMG:  Solving for p_rgh, Initial residual = 0.000406873, Final residual = 6.81825e-07, No Iterations 5
diagonal:  Solving for rho, Initial residual = 0, Final residual = 0, No Iterations 0
time step continuity errors : sum local = 2.98815e-10, global = -2.29125e-11, cumulative = 3.45556e-08
DILUPBiCG:  Solving for k, Initial residual = 0.0860146, Final residual = 8.95414e-10, No Iterations 3

Evolving reactingOneDim for region panelRegion
diagonal:  Solving for rho, Initial residual = 0, Final residual = 0, No Iterations 0
diagonal:  Solving for Yv, Initial residual = 0, Final residual = 0, No Iterations 0
DICPCG:  Solving for T, Initial residual = 0.174043, Final residual = 5.34381e-19, No Iterations 1
pyrolysis min/max(T) = 293, 293.002

Pyrolysis: reactingOneDim
    Total gas mass produced  [kg] = 0
    Total solid mass lost    [kg] = 1.23911e-16
    Total pyrolysis gases  [kg/s] = 0
    Total heat release rate [J/s] = 0

ExecutionTime = 0.27 s  ClockTime = 0 s

Courant Number mean: 0.0050521 max: 0.0486768
deltaT = 0.00979276
Time = 0.0629013

diagonal:  Solving for rho, Initial residual = 0, Final residual = 0, No Iterations 0
DILUPBiCG:  Solving for Ux, Initial residual = 0.0182384, Final residual = 5.26176e-10, No Iterations 3
DILUPBiCG:  Solving for Uz, Initial residual = 0.0161875, Final residual = 5.13431e-08, No Iterations 2
DILUPBiCG:  Solving for O2, Initial residual = 0.0646169, Final residual = 6.36326e-10, No Iterations 2
max of O2 = 0.23301
min of O2 = 0.0224693
DILUPBiCG:  Solving for H2O, Initial residual = 0.0644757, Final residual = 9.5036e-10, No Iterations 2
max of H2O = 0.00722377
min of H2O = 0
DILUPBiCG:  Solving for C3H8, Initial residual = 0.0485525, Final residual = 3.53778e-10, No Iterations 2
max of C3H8 = 0.896548
min of C3H8 = 0
DILUPBiCG:  Solving for CO2, Initial residual = 0.0644757, Final residual = 9.5036e-10, No Iterations 2
max of CO2 = 0.0132353
min of CO2 = 0
max of N2 = 0.76699
min of N2 = 0
DILUPBiCG:  Solving for hs, Initial residual = 0.0664841, Final residual = 9.93131e-10, No Iterations 2
GAMG:  Solving for p_rgh, Initial residual = 0.0645275, Final residual = 0.000235064, No Iterations 6
diagonal:  Solving for rho, Initial residual = 0, Final residual = 0, No Iterations 0
time step continuity errors : sum local = 1.15432e-07, global = -9.58905e-09, cumulative = 2.49665e-08
GAMG:  Solving for p_rgh, Initial residual = 0.00074408, Final residual = 3.88665e-07, No Iterations 6
diagonal:  Solving for rho, Initial residual = 0, Final residual = 0, No Iterations 0
time step continuity errors : sum local = 6.2438e-10, global = -4.53803e-11, cumulative = 2.49212e-08
DILUPBiCG:  Solving for k, Initial residual = 0.0866129, Final residual = 1.63364e-09, No Iterations 3

Evolving reactingOneDim for region panelRegion
diagonal:  Solving for rho, Initial residual = 0, Final residual = 0, No Iterations 0
diagonal:  Solving for Yv, Initial residual = 0, Final residual = 0, No Iterations 0
DICPCG:  Solving for T, Initial residual = 0.162645, Final residual = 4.51479e-18, No Iterations 1
pyrolysis min/max(T) = 293, 293.003

Pyrolysis: reactingOneDim
    Total gas mass produced  [kg] = 0
    Total solid mass lost    [kg] = 1.38561e-16
    Total pyrolysis gases  [kg/s] = 0
    Total heat release rate [J/s] = 0

ExecutionTime = 0.28 s  ClockTime = 0 s

Courant Number mean: 0.00598232 max: 0.0550983
deltaT = 0.00979276
Time = 0.0726941

diagonal:  Solving for rho, Initial residual = 0, Final residual = 0, No Iterations 0
DILUPBiCG:  Solving for Ux, Initial residual = 0.0625957, Final residual = 2.68982e-09, No Iterations 3
DILUPBiCG:  Solving for Uz, Initial residual = 0.0520277, Final residual = 1.31306e-09, No Iterations 3
DILUPBiCG:  Solving for O2, Initial residual = 0.0596637, Final residual = 1.04187e-09, No Iterations 2
max of O2 = 0.23301
min of O2 = 0.0220941
DILUPBiCG:  Solving for H2O, Initial residual = 0.0600301, Final residual = 1.51448e-09, No Iterations 2
max of H2O = 0.00902741
min of H2O = 0
DILUPBiCG:  Solving for C3H8, Initial residual = 0.0409399, Final residual = 5.09307e-10, No Iterations 2
max of C3H8 = 0.896358
min of C3H8 = 0
DILUPBiCG:  Solving for CO2, Initial residual = 0.0600301, Final residual = 1.51448e-09, No Iterations 2
max of CO2 = 0.0165399
min of CO2 = 0
max of N2 = 0.76699
min of N2 = 0
DILUPBiCG:  Solving for hs, Initial residual = 0.0615085, Final residual = 1.81925e-09, No Iterations 2
GAMG:  Solving for p_rgh, Initial residual = 0.0119183, Final residual = 7.61913e-05, No Iterations 5
diagonal:  Solving for rho, Initial residual = 0, Final residual = 0, No Iterations 0
time step continuity errors : sum local = 1.2279e-07, global = -9.74974e-09, cumulative = 1.51714e-08
GAMG:  Solving for p_rgh, Initial residual = 0.000219236, Final residual = 3.3598e-07, No Iterations 5
diagonal:  Solving for rho, Initial residual = 0, Final residual = 0, No Iterations 0
time step continuity errors : sum local = 7.20877e-10, global = -5.39817e-11, cumulative = 1.51174e-08
DILUPBiCG:  Solving for k, Initial residual = 0.0853461, Final residual = 1.86021e-09, No Iterations 3

Evolving reactingOneDim for region panelRegion
diagonal:  Solving for rho, Initial residual = 0, Final residual = 0, No Iterations 0
diagonal:  Solving for Yv, Initial residual = 0, Final residual = 0, No Iterations 0
DICPCG:  Solving for T, Initial residual = 0.150889, Final residual = 5.50385e-18, No Iterations 1
pyrolysis min/max(T) = 293, 293.005

Pyrolysis: reactingOneDim
    Total gas mass produced  [kg] = 0
    Total solid mass lost    [kg] = 1.53461e-16
    Total pyrolysis gases  [kg/s] = 0
    Total heat release rate [J/s] = 0

ExecutionTime = 0.29 s  ClockTime = 0 s

Courant Number mean: 0.00677446 max: 0.059799
deltaT = 0.00979276
Time = 0.0824868

diagonal:  Solving for rho, Initial residual = 0, Final residual = 0, No Iterations 0
DILUPBiCG:  Solving for Ux, Initial residual = 0.0738445, Final residual = 4.69534e-09, No Iterations 3
DILUPBiCG:  Solving for Uz, Initial residual = 0.0608754, Final residual = 2.37705e-09, No Iterations 3
DILUPBiCG:  Solving for O2, Initial residual = 0.0551613, Final residual = 1.82454e-09, No Iterations 2
max of O2 = 0.23301
min of O2 = 0.0216544
DILUPBiCG:  Solving for H2O, Initial residual = 0.0555525, Final residual = 2.69602e-09, No Iterations 2
max of H2O = 0.0111145
min of H2O = 0
DILUPBiCG:  Solving for C3H8, Initial residual = 0.0362359, Final residual = 8.83766e-10, No Iterations 2
max of C3H8 = 0.896146
min of C3H8 = 0
DILUPBiCG:  Solving for CO2, Initial residual = 0.0555525, Final residual = 2.69602e-09, No Iterations 2
max of CO2 = 0.0203639
min of CO2 = 0
max of N2 = 0.76699
min of N2 = 0
DILUPBiCG:  Solving for hs, Initial residual = 0.0564312, Final residual = 3.0157e-09, No Iterations 2
GAMG:  Solving for p_rgh, Initial residual = 0.0100348, Final residual = 3.97318e-05, No Iterations 5
diagonal:  Solving for rho, Initial residual = 0, Final residual = 0, No Iterations 0
time step continuity errors : sum local = 8.5665e-08, global = 5.47125e-09, cumulative = 2.05887e-08
GAMG:  Solving for p_rgh, Initial residual = 0.000425864, Final residual = 7.06252e-07, No Iterations 5
diagonal:  Solving for rho, Initial residual = 0, Final residual = 0, No Iterations 0
time step continuity errors : sum local = 1.43049e-09, global = 9.51066e-11, cumulative = 2.06838e-08
DILUPBiCG:  Solving for k, Initial residual = 0.0815333, Final residual = 2.75924e-09, No Iterations 3

Evolving reactingOneDim for region panelRegion
diagonal:  Solving for rho, Initial residual = 0, Final residual = 0, No Iterations 0
diagonal:  Solving for Yv, Initial residual = 0, Final residual = 0, No Iterations 0
DICPCG:  Solving for T, Initial residual = 0.144588, Final residual = 1.81346e-17, No Iterations 1
pyrolysis min/max(T) = 293, 293.008

Pyrolysis: reactingOneDim
    Total gas mass produced  [kg] = 0
    Total solid mass lost    [kg] = 1.68608e-16
    Total pyrolysis gases  [kg/s] = 0
    Total heat release rate [J/s] = 0

ExecutionTime = 0.31 s  ClockTime = 0 s

Courant Number mean: 0.00751121 max: 0.0659207
deltaT = 0.00979276
Time = 0.0922796

diagonal:  Solving for rho, Initial residual = 0, Final residual = 0, No Iterations 0
DILUPBiCG:  Solving for Ux, Initial residual = 0.062501, Final residual = 5.5661e-09, No Iterations 3
DILUPBiCG:  Solving for Uz, Initial residual = 0.0518625, Final residual = 2.88626e-09, No Iterations 3
DILUPBiCG:  Solving for O2, Initial residual = 0.0508352, Final residual = 2.83481e-09, No Iterations 2
max of O2 = 0.23301
min of O2 = 0.021127
DILUPBiCG:  Solving for H2O, Initial residual = 0.0511352, Final residual = 4.31625e-09, No Iterations 2
max of H2O = 0.0134897
min of H2O = 0
DILUPBiCG:  Solving for C3H8, Initial residual = 0.0323986, Final residual = 1.35385e-09, No Iterations 2
max of C3H8 = 0.896012
min of C3H8 = 0
DILUPBiCG:  Solving for CO2, Initial residual = 0.0511352, Final residual = 4.31625e-09, No Iterations 2
max of CO2 = 0.0247158
min of CO2 = 0
max of N2 = 0.76699
min of N2 = 0
DILUPBiCG:  Solving for hs, Initial residual = 0.0515747, Final residual = 4.82391e-09, No Iterations 2
GAMG:  Solving for p_rgh, Initial residual = 0.0122721, Final residual = 5.2693e-05, No Iterations 5
diagonal:  Solving for rho, Initial residual = 0, Final residual = 0, No Iterations 0
time step continuity errors : sum local = 1.0708e-07, global = 7.29705e-09, cumulative = 2.79808e-08
GAMG:  Solving for p_rgh, Initial residual = 0.000565642, Final residual = 8.15817e-07, No Iterations 5
diagonal:  Solving for rho, Initial residual = 0, Final residual = 0, No Iterations 0
time step continuity errors : sum local = 1.47358e-09, global = 9.87774e-11, cumulative = 2.80796e-08
DILUPBiCG:  Solving for k, Initial residual = 0.0763212, Final residual = 3.59872e-09, No Iterations 3

Evolving reactingOneDim for region panelRegion
diagonal:  Solving for rho, Initial residual = 0, Final residual = 0, No Iterations 0
diagonal:  Solving for Yv, Initial residual = 0, Final residual = 0, No Iterations 0
DICPCG:  Solving for T, Initial residual = 0.138921, Final residual = 2.9268e-18, No Iterations 1
pyrolysis min/max(T) = 293, 293.012

Pyrolysis: reactingOneDim
    Total gas mass produced  [kg] = 0
    Total solid mass lost    [kg] = 1.83755e-16
    Total pyrolysis gases  [kg/s] = 0
    Total heat release rate [J/s] = 0

ExecutionTime = 0.32 s  ClockTime = 0 s

Courant Number mean: 0.00816049 max: 0.0710345
deltaT = 0.00979276
Time = 0.102072

diagonal:  Solving for rho, Initial residual = 0, Final residual = 0, No Iterations 0
DILUPBiCG:  Solving for Ux, Initial residual = 0.0509889, Final residual = 5.94466e-09, No Iterations 3
DILUPBiCG:  Solving for Uz, Initial residual = 0.042893, Final residual = 3.18406e-09, No Iterations 3
DILUPBiCG:  Solving for O2, Initial residual = 0.0468769, Final residual = 3.85167e-09, No Iterations 2
max of O2 = 0.23301
min of O2 = 0.0204939
DILUPBiCG:  Solving for H2O, Initial residual = 0.0470174, Final residual = 6.13894e-09, No Iterations 2
max of H2O = 0.0161608
min of H2O = 0
DILUPBiCG:  Solving for C3H8, Initial residual = 0.029203, Final residual = 1.86209e-09, No Iterations 2
max of C3H8 = 0.896038
min of C3H8 = 0
DILUPBiCG:  Solving for CO2, Initial residual = 0.0470174, Final residual = 6.13894e-09, No Iterations 2
max of CO2 = 0.0296097
min of CO2 = 0
max of N2 = 0.76699
min of N2 = 0
DILUPBiCG:  Solving for hs, Initial residual = 0.0471712, Final residual = 7.00961e-09, No Iterations 2
GAMG:  Solving for p_rgh, Initial residual = 0.0138137, Final residual = 5.65217e-05, No Iterations 5
diagonal:  Solving for rho, Initial residual = 0, Final residual = 0, No Iterations 0
time step continuity errors : sum local = 1.02427e-07, global = 6.23479e-09, cumulative = 3.43144e-08
GAMG:  Solving for p_rgh, Initial residual = 0.000647761, Final residual = 9.53162e-07, No Iterations 5
diagonal:  Solving for rho, Initial residual = 0, Final residual = 0, No Iterations 0
time step continuity errors : sum local = 1.57225e-09, global = 1.0485e-10, cumulative = 3.44193e-08
DILUPBiCG:  Solving for k, Initial residual = 0.0708022, Final residual = 4.23264e-09, No Iterations 3

Evolving reactingOneDim for region panelRegion
diagonal:  Solving for rho, Initial residual = 0, Final residual = 0, No Iterations 0
diagonal:  Solving for Yv, Initial residual = 0, Final residual = 0, No Iterations 0
DICPCG:  Solving for T, Initial residual = 0.132589, Final residual = 1.9006e-18, No Iterations 1
pyrolysis min/max(T) = 293, 293.019

Pyrolysis: reactingOneDim
    Total gas mass produced  [kg] = 0
    Total solid mass lost    [kg] = 1.98903e-16
    Total pyrolysis gases  [kg/s] = 0
    Total heat release rate [J/s] = 0

ExecutionTime = 0.33 s  ClockTime = 0 s

Courant Number mean: 0.00874304 max: 0.0752094
deltaT = 0.00979276
Time = 0.111865

diagonal:  Solving for rho, Initial residual = 0, Final residual = 0, No Iterations 0
DILUPBiCG:  Solving for Ux, Initial residual = 0.0430971, Final residual = 6.22493e-09, No Iterations 3
DILUPBiCG:  Solving for Uz, Initial residual = 0.0365082, Final residual = 3.41328e-09, No Iterations 3
DILUPBiCG:  Solving for O2, Initial residual = 0.0431996, Final residual = 4.78905e-09, No Iterations 2
max of O2 = 0.23301
min of O2 = 0.0197458
DILUPBiCG:  Solving for H2O, Initial residual = 0.0432629, Final residual = 8.01649e-09, No Iterations 2
max of H2O = 0.0191385
min of H2O = 0
DILUPBiCG:  Solving for C3H8, Initial residual = 0.0264589, Final residual = 2.37727e-09, No Iterations 2
max of C3H8 = 0.896273
min of C3H8 = 0
DILUPBiCG:  Solving for CO2, Initial residual = 0.0432629, Final residual = 8.01649e-09, No Iterations 2
max of CO2 = 0.0350655
min of CO2 = 0
max of N2 = 0.76699
min of N2 = 0
DILUPBiCG:  Solving for hs, Initial residual = 0.04325, Final residual = 9.23453e-09, No Iterations 2
GAMG:  Solving for p_rgh, Initial residual = 0.0149482, Final residual = 5.78764e-05, No Iterations 5
diagonal:  Solving for rho, Initial residual = 0, Final residual = 0, No Iterations 0
time step continuity errors : sum local = 9.61986e-08, global = 6.32207e-09, cumulative = 4.07413e-08
GAMG:  Solving for p_rgh, Initial residual = 0.000714993, Final residual = 3.47851e-07, No Iterations 6
diagonal:  Solving for rho, Initial residual = 0, Final residual = 0, No Iterations 0
time step continuity errors : sum local = 5.36434e-10, global = 3.66214e-11, cumulative = 4.07779e-08
DILUPBiCG:  Solving for k, Initial residual = 0.0654565, Final residual = 4.69102e-09, No Iterations 3

Evolving reactingOneDim for region panelRegion
diagonal:  Solving for rho, Initial residual = 0, Final residual = 0, No Iterations 0
diagonal:  Solving for Yv, Initial residual = 0, Final residual = 0, No Iterations 0
DICPCG:  Solving for T, Initial residual = 0.125757, Final residual = 2.0512e-17, No Iterations 1
pyrolysis min/max(T) = 293, 293.028

Pyrolysis: reactingOneDim
    Total gas mass produced  [kg] = 0
    Total solid mass lost    [kg] = 2.1405e-16
    Total pyrolysis gases  [kg/s] = 0
    Total heat release rate [J/s] = 0

ExecutionTime = 0.35 s  ClockTime = 0 s

Courant Number mean: 0.00927203 max: 0.0784545
deltaT = 0.00979276
Time = 0.121658

diagonal:  Solving for rho, Initial residual = 0, Final residual = 0, No Iterations 0
DILUPBiCG:  Solving for Ux, Initial residual = 0.037303, Final residual = 6.41024e-09, No Iterations 3
DILUPBiCG:  Solving for Uz, Initial residual = 0.0317556, Final residual = 3.58256e-09, No Iterations 3
DILUPBiCG:  Solving for O2, Initial residual = 0.0398296, Final residual = 5.85383e-09, No Iterations 2
max of O2 = 0.23301
min of O2 = 0.0188799
DILUPBiCG:  Solving for H2O, Initial residual = 0.0398596, Final residual = 9.76363e-09, No Iterations 2
max of H2O = 0.0224361
min of H2O = 0
DILUPBiCG:  Solving for C3H8, Initial residual = 0.0240478, Final residual = 2.8491e-09, No Iterations 2
max of C3H8 = 0.896734
min of C3H8 = 0
DILUPBiCG:  Solving for CO2, Initial residual = 0.0398596, Final residual = 9.76363e-09, No Iterations 2
max of CO2 = 0.0411073
min of CO2 = 0
max of N2 = 0.76699
min of N2 = 0
GAMG:  Solving for ILambda_0_0, Initial residual = 0.245091, Final residual = 4.33737e-16, No Iterations 1
GAMG:  Solving for ILambda_1_0, Initial residual = 0.246836, Final residual = 4.92478e-16, No Iterations 1
GAMG:  Solving for ILambda_2_0, Initial residual = 0.246836, Final residual = 4.92478e-16, No Iterations 1
GAMG:  Solving for ILambda_3_0, Initial residual = 0.245091, Final residual = 3.95495e-16, No Iterations 1
GAMG:  Solving for ILambda_4_0, Initial residual = 0.338627, Final residual = 1.75059e-16, No Iterations 1
GAMG:  Solving for ILambda_5_0, Initial residual = 0.338969, Final residual = 1.52326e-16, No Iterations 1
GAMG:  Solving for ILambda_6_0, Initial residual = 0.338969, Final residual = 1.14424e-16, No Iterations 1
GAMG:  Solving for ILambda_7_0, Initial residual = 0.338627, Final residual = 2.06978e-16, No Iterations 1
Radiation solver iter: 1
GAMG:  Solving for ILambda_0_0, Initial residual = 0.049948, Final residual = 2.8981e-16, No Iterations 1
GAMG:  Solving for ILambda_1_0, Initial residual = 0.0522987, Final residual = 4.3271e-16, No Iterations 1
GAMG:  Solving for ILambda_2_0, Initial residual = 0.0522987, Final residual = 4.3271e-16, No Iterations 1
GAMG:  Solving for ILambda_3_0, Initial residual = 0.049948, Final residual = 3.85046e-16, No Iterations 1
GAMG:  Solving for ILambda_4_0, Initial residual = 0.0530821, Final residual = 5.37213e-17, No Iterations 1
GAMG:  Solving for ILambda_5_0, Initial residual = 0.0532661, Final residual = 7.86461e-17, No Iterations 1
GAMG:  Solving for ILambda_6_0, Initial residual = 0.0532661, Final residual = 1.41714e-17, No Iterations 1
GAMG:  Solving for ILambda_7_0, Initial residual = 0.0530821, Final residual = 6.97541e-17, No Iterations 1
Radiation solver iter: 2
GAMG:  Solving for ILambda_0_0, Initial residual = 0.0298597, Final residual = 4.45906e-16, No Iterations 1
GAMG:  Solving for ILambda_1_0, Initial residual = 0.0297596, Final residual = 3.76633e-16, No Iterations 1
GAMG:  Solving for ILambda_2_0, Initial residual = 0.0297596, Final residual = 3.76633e-16, No Iterations 1
GAMG:  Solving for ILambda_3_0, Initial residual = 0.0298597, Final residual = 3.65317e-16, No Iterations 1
GAMG:  Solving for ILambda_4_0, Initial residual = 0.024054, Final residual = 1.08171e-16, No Iterations 1
GAMG:  Solving for ILambda_5_0, Initial residual = 0.0241335, Final residual = 5.02483e-17, No Iterations 1
GAMG:  Solving for ILambda_6_0, Initial residual = 0.0241335, Final residual = 1.27224e-16, No Iterations 1
GAMG:  Solving for ILambda_7_0, Initial residual = 0.024054, Final residual = 1.04745e-16, No Iterations 1
Radiation solver iter: 3
GAMG:  Solving for ILambda_0_0, Initial residual = 0.0120205, Final residual = 3.10708e-16, No Iterations 1
GAMG:  Solving for ILambda_1_0, Initial residual = 0.0119821, Final residual = 3.01308e-16, No Iterations 1
GAMG:  Solving for ILambda_2_0, Initial residual = 0.0119821, Final residual = 3.01308e-16, No Iterations 1
GAMG:  Solving for ILambda_3_0, Initial residual = 0.0120205, Final residual = 3.59097e-16, No Iterations 1
GAMG:  Solving for ILambda_4_0, Initial residual = 0.00686972, Final residual = 1.21517e-16, No Iterations 1
GAMG:  Solving for ILambda_5_0, Initial residual = 0.00690889, Final residual = 1.45759e-16, No Iterations 1
GAMG:  Solving for ILambda_6_0, Initial residual = 0.00690889, Final residual = 1.16628e-16, No Iterations 1
GAMG:  Solving for ILambda_7_0, Initial residual = 0.00686972, Final residual = 1.02993e-16, No Iterations 1
Radiation solver iter: 4
GAMG:  Solving for ILambda_0_0, Initial residual = 0.00299227, Final residual = 3.09724e-16, No Iterations 1
GAMG:  Solving for ILambda_1_0, Initial residual = 0.00298607, Final residual = 4.24845e-16, No Iterations 1
GAMG:  Solving for ILambda_2_0, Initial residual = 0.00298607, Final residual = 4.24845e-16, No Iterations 1
GAMG:  Solving for ILambda_3_0, Initial residual = 0.00299227, Final residual = 3.1033e-16, No Iterations 1
GAMG:  Solving for ILambda_4_0, Initial residual = 0.00283974, Final residual = 1.76842e-16, No Iterations 1
GAMG:  Solving for ILambda_5_0, Initial residual = 0.00285702, Final residual = 8.0979e-17, No Iterations 1
GAMG:  Solving for ILambda_6_0, Initial residual = 0.00285702, Final residual = 1.12889e-16, No Iterations 1
GAMG:  Solving for ILambda_7_0, Initial residual = 0.00283974, Final residual = 1.14423e-16, No Iterations 1
Radiation solver iter: 5
DILUPBiCG:  Solving for hs, Initial residual = 0.0397945, Final residual = 4.6817e-12, No Iterations 3
GAMG:  Solving for p_rgh, Initial residual = 0.0156685, Final residual = 5.72123e-05, No Iterations 5
diagonal:  Solving for rho, Initial residual = 0, Final residual = 0, No Iterations 0
time step continuity errors : sum local = 8.95318e-08, global = 5.40399e-09, cumulative = 4.61819e-08
GAMG:  Solving for p_rgh, Initial residual = 0.000736217, Final residual = 3.80159e-07, No Iterations 6
diagonal:  Solving for rho, Initial residual = 0, Final residual = 0, No Iterations 0
time step continuity errors : sum local = 5.64239e-10, global = 3.80476e-11, cumulative = 4.622e-08
DILUPBiCG:  Solving for k, Initial residual = 0.0605018, Final residual = 4.97074e-09, No Iterations 3

Evolving reactingOneDim for region panelRegion
diagonal:  Solving for rho, Initial residual = 0, Final residual = 0, No Iterations 0
diagonal:  Solving for Yv, Initial residual = 0, Final residual = 0, No Iterations 0
DICPCG:  Solving for T, Initial residual = 0.955792, Final residual = 7.97647e-18, No Iterations 1
pyrolysis min/max(T) = 293, 298.749

Pyrolysis: reactingOneDim
    Total gas mass produced  [kg] = 0
    Total solid mass lost    [kg] = 2.29198e-16
    Total pyrolysis gases  [kg/s] = 0
    Total heat release rate [J/s] = 0

ExecutionTime = 0.38 s  ClockTime = 0 s

Courant Number mean: 0.00975917 max: 0.0808086
deltaT = 0.00979276
Time = 0.131451

diagonal:  Solving for rho, Initial residual = 0, Final residual = 0, No Iterations 0
DILUPBiCG:  Solving for Ux, Initial residual = 0.0330568, Final residual = 6.58925e-09, No Iterations 3
DILUPBiCG:  Solving for Uz, Initial residual = 0.0281981, Final residual = 3.71561e-09, No Iterations 3
DILUPBiCG:  Solving for O2, Initial residual = 0.0367728, Final residual = 6.68399e-09, No Iterations 2
max of O2 = 0.23301
min of O2 = 0.0178982
DILUPBiCG:  Solving for H2O, Initial residual = 0.036779, Final residual = 5.17155e-12, No Iterations 3
max of H2O = 0.0260682
min of H2O = 0
DILUPBiCG:  Solving for C3H8, Initial residual = 0.0219226, Final residual = 3.233e-09, No Iterations 2
max of C3H8 = 0.897419
min of C3H8 = 0
DILUPBiCG:  Solving for CO2, Initial residual = 0.036779, Final residual = 5.17155e-12, No Iterations 3
max of CO2 = 0.047762
min of CO2 = 0
max of N2 = 0.76699
min of N2 = 0
DILUPBiCG:  Solving for hs, Initial residual = 0.0366932, Final residual = 5.90761e-12, No Iterations 3
GAMG:  Solving for p_rgh, Initial residual = 0.0175609, Final residual = 6.70197e-05, No Iterations 5
diagonal:  Solving for rho, Initial residual = 0, Final residual = 0, No Iterations 0
time step continuity errors : sum local = 1.00755e-07, global = 6.25613e-09, cumulative = 5.24761e-08
GAMG:  Solving for p_rgh, Initial residual = 0.000841895, Final residual = 4.10097e-07, No Iterations 6
diagonal:  Solving for rho, Initial residual = 0, Final residual = 0, No Iterations 0
time step continuity errors : sum local = 5.72776e-10, global = 3.91626e-11, cumulative = 5.25153e-08
DILUPBiCG:  Solving for k, Initial residual = 0.0559178, Final residual = 5.74619e-09, No Iterations 3

Evolving reactingOneDim for region panelRegion
diagonal:  Solving for rho, Initial residual = 0, Final residual = 0, No Iterations 0
diagonal:  Solving for Yv, Initial residual = 0, Final residual = 0, No Iterations 0
DICPCG:  Solving for T, Initial residual = 0.203731, Final residual = 2.61502e-17, No Iterations 1
pyrolysis min/max(T) = 293, 299.387

Pyrolysis: reactingOneDim
    Total gas mass produced  [kg] = 0
    Total solid mass lost    [kg] = 2.44345e-16
    Total pyrolysis gases  [kg/s] = 0
    Total heat release rate [J/s] = 0

ExecutionTime = 0.39 s  ClockTime = 0 s

Courant Number mean: 0.0101973 max: 0.0822804
deltaT = 0.00979276
Time = 0.141243

diagonal:  Solving for rho, Initial residual = 0, Final residual = 0, No Iterations 0
DILUPBiCG:  Solving for Ux, Initial residual = 0.0289466, Final residual = 6.57128e-09, No Iterations 3
DILUPBiCG:  Solving for Uz, Initial residual = 0.0246104, Final residual = 3.62425e-09, No Iterations 3
DILUPBiCG:  Solving for O2, Initial residual = 0.0340023, Final residual = 7.26278e-09, No Iterations 2
max of O2 = 0.23301
min of O2 = 0.0168057
DILUPBiCG:  Solving for H2O, Initial residual = 0.0339835, Final residual = 6.48765e-12, No Iterations 3
max of H2O = 0.0300507
min of H2O = 0
DILUPBiCG:  Solving for C3H8, Initial residual = 0.0200225, Final residual = 3.52691e-09, No Iterations 2
max of C3H8 = 0.898312
min of C3H8 = 0
DILUPBiCG:  Solving for CO2, Initial residual = 0.0339835, Final residual = 6.48765e-12, No Iterations 3
max of CO2 = 0.0550587
min of CO2 = 0
max of N2 = 0.76699
min of N2 = 0
DILUPBiCG:  Solving for hs, Initial residual = 0.0338928, Final residual = 7.35513e-12, No Iterations 3
GAMG:  Solving for p_rgh, Initial residual = 0.0188271, Final residual = 7.35591e-05, No Iterations 5
diagonal:  Solving for rho, Initial residual = 0, Final residual = 0, No Iterations 0
time step continuity errors : sum local = 1.03904e-07, global = 6.24693e-09, cumulative = 5.87622e-08
GAMG:  Solving for p_rgh, Initial residual = 0.000994076, Final residual = 4.30793e-07, No Iterations 6
diagonal:  Solving for rho, Initial residual = 0, Final residual = 0, No Iterations 0
time step continuity errors : sum local = 5.60867e-10, global = 3.86664e-11, cumulative = 5.88009e-08
DILUPBiCG:  Solving for k, Initial residual = 0.0516721, Final residual = 5.70343e-09, No Iterations 3

Evolving reactingOneDim for region panelRegion
diagonal:  Solving for rho, Initial residual = 0, Final residual = 0, No Iterations 0
diagonal:  Solving for Yv, Initial residual = 0, Final residual = 0, No Iterations 0
DICPCG:  Solving for T, Initial residual = 0.115046, Final residual = 1.32526e-19, No Iterations 1
pyrolysis min/max(T) = 293, 299.995

Pyrolysis: reactingOneDim
    Total gas mass produced  [kg] = 0
    Total solid mass lost    [kg] = 2.59492e-16
    Total pyrolysis gases  [kg/s] = 0
    Total heat release rate [J/s] = 0

ExecutionTime = 0.41 s  ClockTime = 0 s

Courant Number mean: 0.0105874 max: 0.0829385
deltaT = 0.00979276
Time = 0.151036

diagonal:  Solving for rho, Initial residual = 0, Final residual = 0, No Iterations 0
DILUPBiCG:  Solving for Ux, Initial residual = 0.0253467, Final residual = 6.38985e-09, No Iterations 3
DILUPBiCG:  Solving for Uz, Initial residual = 0.0214615, Final residual = 3.37903e-09, No Iterations 3
DILUPBiCG:  Solving for O2, Initial residual = 0.0314877, Final residual = 7.56551e-09, No Iterations 2
max of O2 = 0.23301
min of O2 = 0.0156089
DILUPBiCG:  Solving for H2O, Initial residual = 0.0314295, Final residual = 7.91298e-12, No Iterations 3
max of H2O = 0.0344
min of H2O = 0
DILUPBiCG:  Solving for C3H8, Initial residual = 0.0182816, Final residual = 3.72543e-09, No Iterations 2
max of C3H8 = 0.89939
min of C3H8 = 0
DILUPBiCG:  Solving for CO2, Initial residual = 0.0314295, Final residual = 7.91298e-12, No Iterations 3
max of CO2 = 0.0630274
min of CO2 = 0
max of N2 = 0.76699
min of N2 = 0
DILUPBiCG:  Solving for hs, Initial residual = 0.0313781, Final residual = 8.57365e-12, No Iterations 3
GAMG:  Solving for p_rgh, Initial residual = 0.02143, Final residual = 7.79299e-05, No Iterations 5
diagonal:  Solving for rho, Initial residual = 0, Final residual = 0, No Iterations 0
time step continuity errors : sum local = 1.02614e-07, global = 4.90116e-09, cumulative = 6.3702e-08
GAMG:  Solving for p_rgh, Initial residual = 0.0010956, Final residual = 4.14277e-07, No Iterations 6
diagonal:  Solving for rho, Initial residual = 0, Final residual = 0, No Iterations 0
time step continuity errors : sum local = 5.15146e-10, global = 3.62342e-11, cumulative = 6.37383e-08
DILUPBiCG:  Solving for k, Initial residual = 0.0478493, Final residual = 5.49338e-09, No Iterations 3

Evolving reactingOneDim for region panelRegion
diagonal:  Solving for rho, Initial residual = 0, Final residual = 0, No Iterations 0
diagonal:  Solving for Yv, Initial residual = 0, Final residual = 0, No Iterations 0
DICPCG:  Solving for T, Initial residual = 0.0803134, Final residual = 2.90981e-18, No Iterations 1
pyrolysis min/max(T) = 293, 300.579

Pyrolysis: reactingOneDim
    Total gas mass produced  [kg] = 0
    Total solid mass lost    [kg] = 2.7464e-16
    Total pyrolysis gases  [kg/s] = 0
    Total heat release rate [J/s] = 0

ExecutionTime = 0.42 s  ClockTime = 0 s

Courant Number mean: 0.0109437 max: 0.0829394
deltaT = 0.00979276
Time = 0.160829

diagonal:  Solving for rho, Initial residual = 0, Final residual = 0, No Iterations 0
DILUPBiCG:  Solving for Ux, Initial residual = 0.0229511, Final residual = 6.25305e-09, No Iterations 3
DILUPBiCG:  Solving for Uz, Initial residual = 0.019374, Final residual = 3.13436e-09, No Iterations 3
DILUPBiCG:  Solving for O2, Initial residual = 0.0291855, Final residual = 8.16701e-09, No Iterations 2
max of O2 = 0.23301
min of O2 = 0.0143152
DILUPBiCG:  Solving for H2O, Initial residual = 0.0290975, Final residual = 9.70081e-12, No Iterations 3
max of H2O = 0.0391323
min of H2O = 0
DILUPBiCG:  Solving for C3H8, Initial residual = 0.0167075, Final residual = 3.83944e-09, No Iterations 2
max of C3H8 = 0.900623
min of C3H8 = 0
DILUPBiCG:  Solving for CO2, Initial residual = 0.0290975, Final residual = 9.70081e-12, No Iterations 3
max of CO2 = 0.0716979
min of CO2 = 0
max of N2 = 0.76699
min of N2 = 0
DILUPBiCG:  Solving for hs, Initial residual = 0.0290731, Final residual = 9.58559e-12, No Iterations 3
GAMG:  Solving for p_rgh, Initial residual = 0.0251625, Final residual = 9.44708e-05, No Iterations 5
diagonal:  Solving for rho, Initial residual = 0, Final residual = 0, No Iterations 0
time step continuity errors : sum local = 1.18809e-07, global = 6.78115e-09, cumulative = 7.05194e-08
GAMG:  Solving for p_rgh, Initial residual = 0.00136947, Final residual = 4.28287e-07, No Iterations 6
diagonal:  Solving for rho, Initial residual = 0, Final residual = 0, No Iterations 0
time step continuity errors : sum local = 4.89436e-10, global = 3.48402e-11, cumulative = 7.05543e-08
DILUPBiCG:  Solving for k, Initial residual = 0.044317, Final residual = 5.15447e-09, No Iterations 3

Evolving reactingOneDim for region panelRegion
diagonal:  Solving for rho, Initial residual = 0, Final residual = 0, No Iterations 0
diagonal:  Solving for Yv, Initial residual = 0, Final residual = 0, No Iterations 0
DICPCG:  Solving for T, Initial residual = 0.0619063, Final residual = 2.01325e-18, No Iterations 1
pyrolysis min/max(T) = 293, 301.142

Pyrolysis: reactingOneDim
    Total gas mass produced  [kg] = 0
    Total solid mass lost    [kg] = 2.89787e-16
    Total pyrolysis gases  [kg/s] = 0
    Total heat release rate [J/s] = 0

ExecutionTime = 0.43 s  ClockTime = 0 s

Courant Number mean: 0.0112499 max: 0.0834077
deltaT = 0.00979276
Time = 0.170622

diagonal:  Solving for rho, Initial residual = 0, Final residual = 0, No Iterations 0
DILUPBiCG:  Solving for Ux, Initial residual = 0.0199252, Final residual = 5.62189e-09, No Iterations 3
DILUPBiCG:  Solving for Uz, Initial residual = 0.0168627, Final residual = 2.6855e-09, No Iterations 3
DILUPBiCG:  Solving for O2, Initial residual = 0.0270604, Final residual = 5.03242e-12, No Iterations 3
max of O2 = 0.23301
min of O2 = 0.0129318
DILUPBiCG:  Solving for H2O, Initial residual = 0.0269513, Final residual = 7.09709e-09, No Iterations 2
max of H2O = 0.0442635
min of H2O = 0
DILUPBiCG:  Solving for C3H8, Initial residual = 0.0153263, Final residual = 2.32419e-09, No Iterations 2
max of C3H8 = 0.901983
min of C3H8 = 0
DILUPBiCG:  Solving for CO2, Initial residual = 0.0269513, Final residual = 7.09709e-09, No Iterations 2
max of CO2 = 0.0810992
min of CO2 = 0
max of N2 = 0.76699
min of N2 = 0
DILUPBiCG:  Solving for hs, Initial residual = 0.0268914, Final residual = 7.2072e-09, No Iterations 2
GAMG:  Solving for p_rgh, Initial residual = 0.0300559, Final residual = 0.000121263, No Iterations 5
diagonal:  Solving for rho, Initial residual = 0, Final residual = 0, No Iterations 0
time step continuity errors : sum local = 1.39912e-07, global = 8.47745e-09, cumulative = 7.90317e-08
GAMG:  Solving for p_rgh, Initial residual = 0.00196188, Final residual = 5.58561e-07, No Iterations 6
diagonal:  Solving for rho, Initial residual = 0, Final residual = 0, No Iterations 0
time step continuity errors : sum local = 5.1729e-10, global = 3.70502e-11, cumulative = 7.90688e-08
DILUPBiCG:  Solving for k, Initial residual = 0.0408515, Final residual = 4.66177e-09, No Iterations 3

Evolving reactingOneDim for region panelRegion
diagonal:  Solving for rho, Initial residual = 0, Final residual = 0, No Iterations 0
diagonal:  Solving for Yv, Initial residual = 0, Final residual = 0, No Iterations 0
DICPCG:  Solving for T, Initial residual = 0.0504928, Final residual = 3.50462e-18, No Iterations 1
pyrolysis min/max(T) = 293, 301.687

Pyrolysis: reactingOneDim
    Total gas mass produced  [kg] = 0
    Total solid mass lost    [kg] = 3.04935e-16
    Total pyrolysis gases  [kg/s] = 0
    Total heat release rate [J/s] = 0

ExecutionTime = 0.45 s  ClockTime = 0 s

Courant Number mean: 0.011465 max: 0.0849015
deltaT = 0.00979276
Time = 0.180414

diagonal:  Solving for rho, Initial residual = 0, Final residual = 0, No Iterations 0
DILUPBiCG:  Solving for Ux, Initial residual = 0.0150211, Final residual = 3.76647e-09, No Iterations 3
DILUPBiCG:  Solving for Uz, Initial residual = 0.0129417, Final residual = 3.39357e-09, No Iterations 3
DILUPBiCG:  Solving for O2, Initial residual = 0.0240611, Final residual = 5.64804e-12, No Iterations 3
max of O2 = 0.23301
min of O2 = 0.011623
DILUPBiCG:  Solving for H2O, Initial residual = 0.0238919, Final residual = 8.16008e-09, No Iterations 2
max of H2O = 0.0490705
min of H2O = 0
DILUPBiCG:  Solving for C3H8, Initial residual = 0.0150713, Final residual = 2.3289e-09, No Iterations 2
max of C3H8 = 0.903475
min of C3H8 = 0
DILUPBiCG:  Solving for CO2, Initial residual = 0.0238919, Final residual = 8.16008e-09, No Iterations 2
max of CO2 = 0.0899067
min of CO2 = 0
max of N2 = 0.76699
min of N2 = 0
DILUPBiCG:  Solving for hs, Initial residual = 0.0237618, Final residual = 8.81633e-09, No Iterations 2
GAMG:  Solving for p_rgh, Initial residual = 0.0484018, Final residual = 0.000353422, No Iterations 5
diagonal:  Solving for rho, Initial residual = 0, Final residual = 0, No Iterations 0
time step continuity errors : sum local = 3.36374e-07, global = 2.7066e-08, cumulative = 1.06135e-07
GAMG:  Solving for p_rgh, Initial residual = 0.00337057, Final residual = 6.99699e-07, No Iterations 7
diagonal:  Solving for rho, Initial residual = 0, Final residual = 0, No Iterations 0
time step continuity errors : sum local = 5.19555e-10, global = 3.57249e-11, cumulative = 1.0617e-07
DILUPBiCG:  Solving for k, Initial residual = 0.0353646, Final residual = 3.3697e-09, No Iterations 3

Evolving reactingOneDim for region panelRegion
diagonal:  Solving for rho, Initial residual = 0, Final residual = 0, No Iterations 0
diagonal:  Solving for Yv, Initial residual = 0, Final residual = 0, No Iterations 0
DICPCG:  Solving for T, Initial residual = 0.0427138, Final residual = 2.37995e-20, No Iterations 1
pyrolysis min/max(T) = 293, 302.218

Pyrolysis: reactingOneDim
    Total gas mass produced  [kg] = 0
    Total solid mass lost    [kg] = 3.20082e-16
    Total pyrolysis gases  [kg/s] = 0
    Total heat release rate [J/s] = 0

ExecutionTime = 0.46 s  ClockTime = 0 s

Courant Number mean: 0.0113238 max: 0.0837497
deltaT = 0.00979276
Time = 0.190207

diagonal:  Solving for rho, Initial residual = 0, Final residual = 0, No Iterations 0
DILUPBiCG:  Solving for Ux, Initial residual = 0.00709235, Final residual = 1.97369e-09, No Iterations 3
DILUPBiCG:  Solving for Uz, Initial residual = 0.00641947, Final residual = 3.02736e-11, No Iterations 4
DILUPBiCG:  Solving for O2, Initial residual = 0.0208238, Final residual = 4.98296e-12, No Iterations 3
max of O2 = 0.23301
min of O2 = 0.0104325
DILUPBiCG:  Solving for H2O, Initial residual = 0.0206567, Final residual = 2.1589e-11, No Iterations 3
max of H2O = 0.0534147
min of H2O = 0
DILUPBiCG:  Solving for C3H8, Initial residual = 0.0138679, Final residual = 1.8313e-09, No Iterations 2
max of C3H8 = 0.904993
min of C3H8 = 0
DILUPBiCG:  Solving for CO2, Initial residual = 0.0206567, Final residual = 2.1589e-11, No Iterations 3
max of CO2 = 0.097866
min of CO2 = 0
max of N2 = 0.76699
min of N2 = 0
DILUPBiCG:  Solving for hs, Initial residual = 0.020468, Final residual = 2.97622e-11, No Iterations 3
GAMG:  Solving for p_rgh, Initial residual = 0.0718612, Final residual = 0.000428972, No Iterations 5
diagonal:  Solving for rho, Initial residual = 0, Final residual = 0, No Iterations 0
time step continuity errors : sum local = 3.24756e-07, global = 2.86228e-08, cumulative = 1.34793e-07
GAMG:  Solving for p_rgh, Initial residual = 0.00177929, Final residual = 5.89607e-07, No Iterations 6
diagonal:  Solving for rho, Initial residual = 0, Final residual = 0, No Iterations 0
time step continuity errors : sum local = 1.06771e-09, global = 7.59704e-11, cumulative = 1.34869e-07
DILUPBiCG:  Solving for k, Initial residual = 0.0292514, Final residual = 1.86321e-09, No Iterations 3

Evolving reactingOneDim for region panelRegion
diagonal:  Solving for rho, Initial residual = 0, Final residual = 0, No Iterations 0
diagonal:  Solving for Yv, Initial residual = 0, Final residual = 0, No Iterations 0
DICPCG:  Solving for T, Initial residual = 0.0370834, Final residual = 3.1362e-19, No Iterations 1
pyrolysis min/max(T) = 293, 302.737

Pyrolysis: reactingOneDim
    Total gas mass produced  [kg] = 0
    Total solid mass lost    [kg] = 3.35229e-16
    Total pyrolysis gases  [kg/s] = 0
    Total heat release rate [J/s] = 0

ExecutionTime = 0.48 s  ClockTime = 0 s

Courant Number mean: 0.0107893 max: 0.0798589
deltaT = 0.00979276
Time = 0.2

diagonal:  Solving for rho, Initial residual = 0, Final residual = 0, No Iterations 0
DILUPBiCG:  Solving for Ux, Initial residual = 0.0309683, Final residual = 6.41734e-09, No Iterations 3
DILUPBiCG:  Solving for Uz, Initial residual = 0.0250296, Final residual = 4.99035e-09, No Iterations 3
DILUPBiCG:  Solving for O2, Initial residual = 0.0179675, Final residual = 3.53565e-12, No Iterations 3
max of O2 = 0.23301
min of O2 = 0.00935628
DILUPBiCG:  Solving for H2O, Initial residual = 0.0178127, Final residual = 1.38502e-11, No Iterations 3
max of H2O = 0.0573211
min of H2O = 0
DILUPBiCG:  Solving for C3H8, Initial residual = 0.0126852, Final residual = 1.25991e-09, No Iterations 2
max of C3H8 = 0.906491
min of C3H8 = 0
DILUPBiCG:  Solving for CO2, Initial residual = 0.0178127, Final residual = 1.38502e-11, No Iterations 3
max of CO2 = 0.105023
min of CO2 = 0
max of N2 = 0.76699
min of N2 = 0
DILUPBiCG:  Solving for hs, Initial residual = 0.017587, Final residual = 1.86532e-11, No Iterations 3
GAMG:  Solving for p_rgh, Initial residual = 0.024724, Final residual = 9.98494e-05, No Iterations 5
diagonal:  Solving for rho, Initial residual = 0, Final residual = 0, No Iterations 0
time step continuity errors : sum local = 1.8229e-07, global = 1.51637e-08, cumulative = 1.50033e-07
GAMG:  Solving for p_rgh, Initial residual = 0.0010456, Final residual = 3.61748e-07, No Iterations 6
diagonal:  Solving for rho, Initial residual = 0, Final residual = 0, No Iterations 0
time step continuity errors : sum local = 8.57335e-10, global = 6.55282e-11, cumulative = 1.50098e-07
DILUPBiCG:  Solving for k, Initial residual = 0.024157, Final residual = 1.0605e-09, No Iterations 3

Evolving reactingOneDim for region panelRegion
diagonal:  Solving for rho, Initial residual = 0, Final residual = 0, No Iterations 0
diagonal:  Solving for Yv, Initial residual = 0, Final residual = 0, No Iterations 0
DICPCG:  Solving for T, Initial residual = 0.0328339, Final residual = 1.35623e-18, No Iterations 1
pyrolysis min/max(T) = 293, 303.243

Pyrolysis: reactingOneDim
    Total gas mass produced  [kg] = 0
    Total solid mass lost    [kg] = 3.50377e-16
    Total pyrolysis gases  [kg/s] = 0
    Total heat release rate [J/s] = 0

ExecutionTime = 0.5 s  ClockTime = 0 s

Courant Number mean: 0.0100775 max: 0.0753174
deltaT = 0.00952381
Time = 0.209524

diagonal:  Solving for rho, Initial residual = 0, Final residual = 0, No Iterations 0
DILUPBiCG:  Solving for Ux, Initial residual = 0.0449069, Final residual = 6.29818e-09, No Iterations 3
DILUPBiCG:  Solving for Uz, Initial residual = 0.0361427, Final residual = 5.1988e-09, No Iterations 3
DILUPBiCG:  Solving for O2, Initial residual = 0.0153949, Final residual = 3.16916e-12, No Iterations 3
max of O2 = 0.23301
min of O2 = 0.0083924
DILUPBiCG:  Solving for H2O, Initial residual = 0.0152673, Final residual = 2.70861e-09, No Iterations 2
max of H2O = 0.0608281
min of H2O = 0
DILUPBiCG:  Solving for C3H8, Initial residual = 0.0114941, Final residual = 4.96957e-10, No Iterations 2
max of C3H8 = 0.907888
min of C3H8 = 0
[...]
GAMG:  Solving for ILambda_3_0, Initial residual = 0.177522, Final residual = 1.10263e-15, No Iterations 1
GAMG:  Solving for ILambda_4_0, Initial residual = 0.139054, Final residual = 4.38327e-17, No Iterations 1
GAMG:  Solving for ILambda_5_0, Initial residual = 0.139054, Final residual = 4.05741e-17, No Iterations 1
GAMG:  Solving for ILambda_6_0, Initial residual = 0.139054, Final residual = 3.85294e-17, No Iterations 1
GAMG:  Solving for ILambda_7_0, Initial residual = 0.139054, Final residual = 2.76562e-17, No Iterations 1
Radiation solver iter: 1
GAMG:  Solving for ILambda_0_0, Initial residual = 0.0866802, Final residual = 1.07459e-15, No Iterations 1
GAMG:  Solving for ILambda_1_0, Initial residual = 0.093244, Final residual = 1.74668e-15, No Iterations 1
GAMG:  Solving for ILambda_2_0, Initial residual = 0.093244, Final residual = 1.74668e-15, No Iterations 1
GAMG:  Solving for ILambda_3_0, Initial residual = 0.0866802, Final residual = 1.01963e-15, No Iterations 1
GAMG:  Solving for ILambda_4_0, Initial residual = 0.053624, Final residual = 4.07259e-17, No Iterations 1
GAMG:  Solving for ILambda_5_0, Initial residual = 0.053624, Final residual = 3.51142e-17, No Iterations 1
GAMG:  Solving for ILambda_6_0, Initial residual = 0.053624, Final residual = 3.50235e-17, No Iterations 1
GAMG:  Solving for ILambda_7_0, Initial residual = 0.053624, Final residual = 2.5713e-17, No Iterations 1
Radiation solver iter: 2
GAMG:  Solving for ILambda_0_0, Initial residual = 0.0428236, Final residual = 1.07533e-15, No Iterations 1
GAMG:  Solving for ILambda_1_0, Initial residual = 0.0428236, Final residual = 1.77862e-15, No Iterations 1
GAMG:  Solving for ILambda_2_0, Initial residual = 0.0428236, Final residual = 1.77862e-15, No Iterations 1
GAMG:  Solving for ILambda_3_0, Initial residual = 0.0428236, Final residual = 1.01544e-15, No Iterations 1
GAMG:  Solving for ILambda_4_0, Initial residual = 0.0163584, Final residual = 3.48039e-17, No Iterations 1
GAMG:  Solving for ILambda_5_0, Initial residual = 0.0163584, Final residual = 3.3217e-17, No Iterations 1
GAMG:  Solving for ILambda_6_0, Initial residual = 0.0163584, Final residual = 2.74651e-17, No Iterations 1
GAMG:  Solving for ILambda_7_0, Initial residual = 0.0163584, Final residual = 2.70805e-17, No Iterations 1
Radiation solver iter: 3
GAMG:  Solving for ILambda_0_0, Initial residual = 0.0119006, Final residual = 9.56856e-16, No Iterations 1
GAMG:  Solving for ILambda_1_0, Initial residual = 0.0119006, Final residual = 1.72397e-15, No Iterations 1
GAMG:  Solving for ILambda_2_0, Initial residual = 0.0119006, Final residual = 1.72397e-15, No Iterations 1
GAMG:  Solving for ILambda_3_0, Initial residual = 0.0119006, Final residual = 1.01777e-15, No Iterations 1
GAMG:  Solving for ILambda_4_0, Initial residual = 0.00693466, Final residual = 2.57184e-17, No Iterations 1
GAMG:  Solving for ILambda_5_0, Initial residual = 0.00693466, Final residual = 2.8668e-17, No Iterations 1
GAMG:  Solving for ILambda_6_0, Initial residual = 0.00693466, Final residual = 2.65064e-17, No Iterations 1
GAMG:  Solving for ILambda_7_0, Initial residual = 0.00693466, Final residual = 2.27448e-17, No Iterations 1
Radiation solver iter: 4
GAMG:  Solving for ILambda_0_0, Initial residual = 0.00488808, Final residual = 1.03086e-15, No Iterations 1
GAMG:  Solving for ILambda_1_0, Initial residual = 0.00488808, Final residual = 1.82628e-15, No Iterations 1
GAMG:  Solving for ILambda_2_0, Initial residual = 0.00488808, Final residual = 1.82628e-15, No Iterations 1
GAMG:  Solving for ILambda_3_0, Initial residual = 0.00488808, Final residual = 1.08232e-15, No Iterations 1
GAMG:  Solving for ILambda_4_0, Initial residual = 0.00295841, Final residual = 3.4688e-17, No Iterations 1
GAMG:  Solving for ILambda_5_0, Initial residual = 0.00295841, Final residual = 3.58635e-17, No Iterations 1
GAMG:  Solving for ILambda_6_0, Initial residual = 0.00295841, Final residual = 4.17437e-17, No Iterations 1
GAMG:  Solving for ILambda_7_0, Initial residual = 0.00295841, Final residual = 4.4902e-17, No Iterations 1
Radiation solver iter: 5
DILUPBiCG:  Solving for hs, Initial residual = 0.00489774, Final residual = 9.93686e-09, No Iterations 3
GAMG:  Solving for p_rgh, Initial residual = 0.0290066, Final residual = 0.000163267, No Iterations 3
diagonal:  Solving for rho, Initial residual = 0, Final residual = 0, No Iterations 0
time step continuity errors : sum local = 5.42585e-06, global = -1.3292e-06, cumulative = 0.000848929
GAMG:  Solving for p_rgh, Initial residual = 0.0032908, Final residual = 5.77905e-07, No Iterations 7
diagonal:  Solving for rho, Initial residual = 0, Final residual = 0, No Iterations 0
time step continuity errors : sum local = 2.00787e-08, global = 1.58298e-09, cumulative = 0.000848931
DILUPBiCG:  Solving for k, Initial residual = 0.00439823, Final residual = 6.89783e-10, No Iterations 3

Evolving reactingOneDim for region panelRegion
diagonal:  Solving for rho, Initial residual = 0, Final residual = 0, No Iterations 0
diagonal:  Solving for Yv, Initial residual = 0, Final residual = 0, No Iterations 0
DICPCG:  Solving for T, Initial residual = 0.00563708, Final residual = 1.07412e-18, No Iterations 1
pyrolysis min/max(T) = 333.064, 845.428

Pyrolysis: reactingOneDim
    Total gas mass produced  [kg] = 0.00258019
    Total solid mass lost    [kg] = -0.00258019
    Total pyrolysis gases  [kg/s] = 0.0035842
    Total heat release rate [J/s] = -5616.88

ExecutionTime = 5.71 s  ClockTime = 6 s

Courant Number mean: 0.067948 max: 2.43635
deltaT = 0.00947368
Time = 2.95263

diagonal:  Solving for rho, Initial residual = 0, Final residual = 0, No Iterations 0
DILUPBiCG:  Solving for Ux, Initial residual = 0.0589408, Final residual = 4.73714e-08, No Iterations 4
DILUPBiCG:  Solving for Uz, Initial residual = 0.0115461, Final residual = 5.13599e-09, No Iterations 4
DILUPBiCG:  Solving for O2, Initial residual = 0.00495523, Final residual = 2.76889e-09, No Iterations 4
max of O2 = 0.23301
min of O2 = 0.00961418
DILUPBiCG:  Solving for H2O, Initial residual = 0.00492282, Final residual = 8.5098e-09, No Iterations 3
max of H2O = 0.0802766
min of H2O = 0
DILUPBiCG:  Solving for C3H8, Initial residual = 0.00552646, Final residual = 7.45826e-10, No Iterations 3
max of C3H8 = 0.896549
min of C3H8 = 0
DILUPBiCG:  Solving for CO2, Initial residual = 0.00492282, Final residual = 8.5098e-09, No Iterations 3
max of CO2 = 0.147082
min of CO2 = 0
max of N2 = 0.76699
min of N2 = 0
DILUPBiCG:  Solving for hs, Initial residual = 0.00482792, Final residual = 7.57209e-09, No Iterations 3
GAMG:  Solving for p_rgh, Initial residual = 0.0268719, Final residual = 7.73342e-05, No Iterations 3
diagonal:  Solving for rho, Initial residual = 0, Final residual = 0, No Iterations 0
time step continuity errors : sum local = 2.64716e-06, global = -1.36877e-06, cumulative = 0.000847562
GAMG:  Solving for p_rgh, Initial residual = 0.00306572, Final residual = 5.98665e-07, No Iterations 7
diagonal:  Solving for rho, Initial residual = 0, Final residual = 0, No Iterations 0
time step continuity errors : sum local = 2.08298e-08, global = 1.63775e-09, cumulative = 0.000847564
DILUPBiCG:  Solving for k, Initial residual = 0.00461857, Final residual = 5.0971e-10, No Iterations 3

Evolving reactingOneDim for region panelRegion
diagonal:  Solving for rho, Initial residual = 0, Final residual = 0, No Iterations 0
diagonal:  Solving for Yv, Initial residual = 0, Final residual = 0, No Iterations 0
DICPCG:  Solving for T, Initial residual = 0.00519834, Final residual = 4.43988e-19, No Iterations 1
pyrolysis min/max(T) = 333.449, 847.593

Pyrolysis: reactingOneDim
    Total gas mass produced  [kg] = 0.00261637
    Total solid mass lost    [kg] = -0.00261637
    Total pyrolysis gases  [kg/s] = 0.00381952
    Total heat release rate [J/s] = -5985.65

ExecutionTime = 5.72 s  ClockTime = 6 s

Courant Number mean: 0.0669757 max: 2.44859
deltaT = 0.00947368
Time = 2.96211

diagonal:  Solving for rho, Initial residual = 0, Final residual = 0, No Iterations 0
DILUPBiCG:  Solving for Ux, Initial residual = 0.0614206, Final residual = 3.51654e-08, No Iterations 4
DILUPBiCG:  Solving for Uz, Initial residual = 0.0117006, Final residual = 4.6225e-09, No Iterations 4
DILUPBiCG:  Solving for O2, Initial residual = 0.00490881, Final residual = 1.13144e-09, No Iterations 4
max of O2 = 0.23301
min of O2 = 0.00962007
DILUPBiCG:  Solving for H2O, Initial residual = 0.00492123, Final residual = 6.89158e-09, No Iterations 3
max of H2O = 0.0805717
min of H2O = 0
DILUPBiCG:  Solving for C3H8, Initial residual = 0.00552062, Final residual = 9.58724e-10, No Iterations 3
max of C3H8 = 0.896264
min of C3H8 = 0
DILUPBiCG:  Solving for CO2, Initial residual = 0.00492123, Final residual = 6.89158e-09, No Iterations 3
max of CO2 = 0.147623
min of CO2 = 0
max of N2 = 0.76699
min of N2 = 0
DILUPBiCG:  Solving for hs, Initial residual = 0.00484837, Final residual = 6.43776e-09, No Iterations 3
GAMG:  Solving for p_rgh, Initial residual = 0.0273876, Final residual = 0.000101406, No Iterations 3
diagonal:  Solving for rho, Initial residual = 0, Final residual = 0, No Iterations 0
time step continuity errors : sum local = 3.47922e-06, global = -1.06441e-06, cumulative = 0.0008465
GAMG:  Solving for p_rgh, Initial residual = 0.00309899, Final residual = 4.9127e-07, No Iterations 7
diagonal:  Solving for rho, Initial residual = 0, Final residual = 0, No Iterations 0
time step continuity errors : sum local = 1.73982e-08, global = 1.38118e-09, cumulative = 0.000846501
DILUPBiCG:  Solving for k, Initial residual = 0.00481276, Final residual = 5.02139e-10, No Iterations 3

Evolving reactingOneDim for region panelRegion
diagonal:  Solving for rho, Initial residual = 0, Final residual = 0, No Iterations 0
diagonal:  Solving for Yv, Initial residual = 0, Final residual = 0, No Iterations 0
DICPCG:  Solving for T, Initial residual = 0.00493883, Final residual = 4.55441e-19, No Iterations 1
pyrolysis min/max(T) = 333.837, 849.441

Pyrolysis: reactingOneDim
    Total gas mass produced  [kg] = 0.00265388
    Total solid mass lost    [kg] = -0.00265388
    Total pyrolysis gases  [kg/s] = 0.0039589
    Total heat release rate [J/s] = -6204.08

ExecutionTime = 5.74 s  ClockTime = 6 s

Courant Number mean: 0.066226 max: 2.46475
deltaT = 0.00947368
Time = 2.97158

diagonal:  Solving for rho, Initial residual = 0, Final residual = 0, No Iterations 0
DILUPBiCG:  Solving for Ux, Initial residual = 0.0607247, Final residual = 2.85232e-08, No Iterations 4
DILUPBiCG:  Solving for Uz, Initial residual = 0.0111301, Final residual = 3.78852e-09, No Iterations 4
DILUPBiCG:  Solving for O2, Initial residual = 0.00487318, Final residual = 7.91358e-10, No Iterations 4
max of O2 = 0.23301
min of O2 = 0.00935638
DILUPBiCG:  Solving for H2O, Initial residual = 0.00484541, Final residual = 5.07449e-09, No Iterations 3
max of H2O = 0.0807725
min of H2O = 0
DILUPBiCG:  Solving for C3H8, Initial residual = 0.00566845, Final residual = 8.56885e-10, No Iterations 3
max of C3H8 = 0.898835
min of C3H8 = 0
DILUPBiCG:  Solving for CO2, Initial residual = 0.00484541, Final residual = 5.07449e-09, No Iterations 3
max of CO2 = 0.147991
min of CO2 = 0
max of N2 = 0.76699
min of N2 = 0
DILUPBiCG:  Solving for hs, Initial residual = 0.00477851, Final residual = 4.99969e-09, No Iterations 3
GAMG:  Solving for p_rgh, Initial residual = 0.0259548, Final residual = 0.000107238, No Iterations 3
diagonal:  Solving for rho, Initial residual = 0, Final residual = 0, No Iterations 0
time step continuity errors : sum local = 3.7481e-06, global = -1.08931e-06, cumulative = 0.000845412
GAMG:  Solving for p_rgh, Initial residual = 0.00320262, Final residual = 7.48782e-07, No Iterations 7
diagonal:  Solving for rho, Initial residual = 0, Final residual = 0, No Iterations 0
time step continuity errors : sum local = 2.68864e-08, global = 2.08135e-09, cumulative = 0.000845414
DILUPBiCG:  Solving for k, Initial residual = 0.00497364, Final residual = 4.18675e-10, No Iterations 3

Evolving reactingOneDim for region panelRegion
diagonal:  Solving for rho, Initial residual = 0, Final residual = 0, No Iterations 0
diagonal:  Solving for Yv, Initial residual = 0, Final residual = 0, No Iterations 0
DICPCG:  Solving for T, Initial residual = 0.00476929, Final residual = 4.75243e-19, No Iterations 1
pyrolysis min/max(T) = 334.228, 851.226

Pyrolysis: reactingOneDim
    Total gas mass produced  [kg] = 0.00269226
    Total solid mass lost    [kg] = -0.00269226
    Total pyrolysis gases  [kg/s] = 0.00405164
    Total heat release rate [J/s] = -6349.42

ExecutionTime = 5.75 s  ClockTime = 6 s

Courant Number mean: 0.0656 max: 2.48411
deltaT = 0.00947368
Time = 2.98105

diagonal:  Solving for rho, Initial residual = 0, Final residual = 0, No Iterations 0
DILUPBiCG:  Solving for Ux, Initial residual = 0.0615184, Final residual = 2.39082e-08, No Iterations 4
DILUPBiCG:  Solving for Uz, Initial residual = 0.0107394, Final residual = 3.21814e-09, No Iterations 4
DILUPBiCG:  Solving for O2, Initial residual = 0.00485892, Final residual = 2.33949e-10, No Iterations 4
max of O2 = 0.23301
min of O2 = 0.00927382
DILUPBiCG:  Solving for H2O, Initial residual = 0.00486955, Final residual = 4.44315e-09, No Iterations 3
max of H2O = 0.0810654
min of H2O = 0
DILUPBiCG:  Solving for C3H8, Initial residual = 0.00570012, Final residual = 1.14843e-09, No Iterations 3
max of C3H8 = 0.899435
min of C3H8 = 0
DILUPBiCG:  Solving for CO2, Initial residual = 0.00486955, Final residual = 4.44315e-09, No Iterations 3
max of CO2 = 0.148527
min of CO2 = 0
max of N2 = 0.76699
min of N2 = 0
DILUPBiCG:  Solving for hs, Initial residual = 0.0048144, Final residual = 5.05505e-09, No Iterations 3
GAMG:  Solving for p_rgh, Initial residual = 0.0354479, Final residual = 0.000300033, No Iterations 4
diagonal:  Solving for rho, Initial residual = 0, Final residual = 0, No Iterations 0
time step continuity errors : sum local = 1.06812e-05, global = -1.01684e-06, cumulative = 0.000844397
GAMG:  Solving for p_rgh, Initial residual = 0.00349648, Final residual = 4.05173e-07, No Iterations 7
diagonal:  Solving for rho, Initial residual = 0, Final residual = 0, No Iterations 0
time step continuity errors : sum local = 1.86858e-08, global = -1.25269e-09, cumulative = 0.000844396
DILUPBiCG:  Solving for k, Initial residual = 0.00587999, Final residual = 5.7849e-10, No Iterations 3

Evolving reactingOneDim for region panelRegion
diagonal:  Solving for rho, Initial residual = 0, Final residual = 0, No Iterations 0
diagonal:  Solving for Yv, Initial residual = 0, Final residual = 0, No Iterations 0
DICPCG:  Solving for T, Initial residual = 0.00464637, Final residual = 3.49067e-19, No Iterations 1
pyrolysis min/max(T) = 334.621, 852.995

Pyrolysis: reactingOneDim
    Total gas mass produced  [kg] = 0.00273129
    Total solid mass lost    [kg] = -0.00273129
    Total pyrolysis gases  [kg/s] = 0.00411939
    Total heat release rate [J/s] = -6455.58

ExecutionTime = 5.77 s  ClockTime = 6 s

Courant Number mean: 0.0684552 max: 2.51163
deltaT = 0.00947368
Time = 2.99053

diagonal:  Solving for rho, Initial residual = 0, Final residual = 0, No Iterations 0
DILUPBiCG:  Solving for Ux, Initial residual = 0.0976101, Final residual = 2.64761e-08, No Iterations 4
DILUPBiCG:  Solving for Uz, Initial residual = 0.0170926, Final residual = 2.7249e-08, No Iterations 4
DILUPBiCG:  Solving for O2, Initial residual = 0.00492582, Final residual = 5.82615e-09, No Iterations 3
max of O2 = 0.23301
min of O2 = 0.00923559
DILUPBiCG:  Solving for H2O, Initial residual = 0.00492762, Final residual = 4.63503e-09, No Iterations 3
max of H2O = 0.0812701
min of H2O = 0
DILUPBiCG:  Solving for C3H8, Initial residual = 0.00574233, Final residual = 1.56512e-09, No Iterations 3
max of C3H8 = 0.899561
min of C3H8 = 0
DILUPBiCG:  Solving for CO2, Initial residual = 0.00492762, Final residual = 4.63503e-09, No Iterations 3
max of CO2 = 0.148903
min of CO2 = 0
max of N2 = 0.76699
min of N2 = 0
DILUPBiCG:  Solving for hs, Initial residual = 0.00485685, Final residual = 5.0803e-09, No Iterations 3
GAMG:  Solving for p_rgh, Initial residual = 0.0328483, Final residual = 0.000267609, No Iterations 4
diagonal:  Solving for rho, Initial residual = 0, Final residual = 0, No Iterations 0
time step continuity errors : sum local = 1.23043e-05, global = 1.18256e-06, cumulative = 0.000845578
GAMG:  Solving for p_rgh, Initial residual = 0.00419994, Final residual = 6.72329e-07, No Iterations 7
diagonal:  Solving for rho, Initial residual = 0, Final residual = 0, No Iterations 0
time step continuity errors : sum local = 2.5108e-08, global = 1.80897e-09, cumulative = 0.00084558
DILUPBiCG:  Solving for k, Initial residual = 0.00581007, Final residual = 5.09953e-10, No Iterations 3

Evolving reactingOneDim for region panelRegion
diagonal:  Solving for rho, Initial residual = 0, Final residual = 0, No Iterations 0
diagonal:  Solving for Yv, Initial residual = 0, Final residual = 0, No Iterations 0
DICPCG:  Solving for T, Initial residual = 0.00455114, Final residual = 4.13819e-19, No Iterations 1
pyrolysis min/max(T) = 335.016, 854.758

Pyrolysis: reactingOneDim
    Total gas mass produced  [kg] = 0.00277081
    Total solid mass lost    [kg] = -0.00277081
    Total pyrolysis gases  [kg/s] = 0.00417183
    Total heat release rate [J/s] = -6537.77

ExecutionTime = 5.78 s  ClockTime = 6 s

Courant Number mean: 0.0681332 max: 2.55805
deltaT = 0.00947368
Time = 3

diagonal:  Solving for rho, Initial residual = 0, Final residual = 0, No Iterations 0
DILUPBiCG:  Solving for Ux, Initial residual = 0.0565935, Final residual = 2.47767e-08, No Iterations 4
DILUPBiCG:  Solving for Uz, Initial residual = 0.0105018, Final residual = 5.06744e-09, No Iterations 4
DILUPBiCG:  Solving for O2, Initial residual = 0.00487576, Final residual = 5.60248e-09, No Iterations 3
max of O2 = 0.23301
min of O2 = 0.00920862
DILUPBiCG:  Solving for H2O, Initial residual = 0.0048619, Final residual = 3.78998e-09, No Iterations 3
max of H2O = 0.0814796
min of H2O = 0
DILUPBiCG:  Solving for C3H8, Initial residual = 0.00569263, Final residual = 1.19159e-09, No Iterations 3
max of C3H8 = 0.899559
min of C3H8 = 0
DILUPBiCG:  Solving for CO2, Initial residual = 0.0048619, Final residual = 3.78998e-09, No Iterations 3
max of CO2 = 0.149286
min of CO2 = 0
max of N2 = 0.76699
min of N2 = 0
DILUPBiCG:  Solving for hs, Initial residual = 0.00479648, Final residual = 3.85895e-09, No Iterations 3
GAMG:  Solving for p_rgh, Initial residual = 0.028401, Final residual = 8.88743e-05, No Iterations 3
diagonal:  Solving for rho, Initial residual = 0, Final residual = 0, No Iterations 0
time step continuity errors : sum local = 3.2759e-06, global = 8.52692e-07, cumulative = 0.000846433
GAMG:  Solving for p_rgh, Initial residual = 0.00313119, Final residual = 4.48725e-07, No Iterations 7
diagonal:  Solving for rho, Initial residual = 0, Final residual = 0, No Iterations 0
time step continuity errors : sum local = 1.61704e-08, global = 1.32049e-09, cumulative = 0.000846434
DILUPBiCG:  Solving for k, Initial residual = 0.00570378, Final residual = 1.22343e-09, No Iterations 3

Evolving reactingOneDim for region panelRegion
diagonal:  Solving for rho, Initial residual = 0, Final residual = 0, No Iterations 0
diagonal:  Solving for Yv, Initial residual = 0, Final residual = 0, No Iterations 0
DICPCG:  Solving for T, Initial residual = 0.00447592, Final residual = 4.62393e-19, No Iterations 1
pyrolysis min/max(T) = 335.414, 856.518

Pyrolysis: reactingOneDim
    Total gas mass produced  [kg] = 0.00281073
    Total solid mass lost    [kg] = -0.00281073
    Total pyrolysis gases  [kg/s] = 0.00421395
    Total heat release rate [J/s] = -6603.78

ExecutionTime = 5.81 s  ClockTime = 6 s

End

Finalising parallel run
