/*---------------------------------------------------------------------------*\
| =========                 |                                                 |
| \\      /  F ield         | OpenFOAM: The Open Source CFD Toolbox           |
|  \\    /   O peration     | Version:  1.7.x                                 |
|   \\  /    A nd           | Web:      www.OpenFOAM.com                      |
|    \\/     M anipulation  |                                                 |
\*---------------------------------------------------------------------------*/
Build  : 1.7.x-868d5097761f
Exec   : fireFoam -parallel
Date   : Jun 02 2011
Time   : 10:53:18
Host   : wangyUbuntu
PID    : 3752
Case   : /home/wangy/OpenFOAM/wangy-1.7.x/run/fireFoam/testBatteryFireFOAM/coFlowFlame2D
nProcs : 4
Slaves : 
3
(
wangyUbuntu.3753
wangyUbuntu.3754
wangyUbuntu.3755
)

Pstream initialized with:
    floatTransfer     : 0
    nProcsSimpleSum   : 0
    commsType         : nonBlocking
SigFpe : Enabling floating point exception trapping (FOAM_SIGFPE).

// * * * * * * * * * * * * * * * * * * * * * * * * * * * * * * * * * * * * * //
Create time

Create mesh for time = 0


Reading g
Reading thermophysical properties

Selecting thermodynamics package hsPsiMixtureThermoNew<singleStepReactingMixture<gasThermoPhysics>>
Selecting chemistryReader foamChemistryReader
Fuel heat of combustion :5.00314e+07
Mole based specieStoichCoeffs: 5(-2 2 -1 1 7.52)
stoichiometric air-fuel ratio :17.1204
stoichiometric oxygen-fuel ratio :3.98918
Max products: 5(0 0.123944 0 0.151392 0.724664)
mass based specieStoichCoeffs: 5(-3.98918 2.2459 -1 2.74329 13.1312)
Reading field p_rgh

Reading field U

Reading/calculating face flux field phi

Creating turbulence model

Selecting turbulence model type LESModel
Selecting LES turbulence model oneEqEddy
--> FOAM Warning : 
    From function cubeRootVolDelta::calcDelta()
    in file cubeRootVolDelta/cubeRootVolDelta.C at line 52
    Case is 2D, LES is not strictly applicable

oneEqEddyCoeffs
{
    ce              1.048;
    Prt             1;
    ck              0.094;
}

Creating combustion model

Selecting combustion model eddyDissipationModel
stoichiometric mixture fraction is = 0.0551866
Creating field DpDt

Calculating field g.h

Selecting radiationModel none
Creating pyrolysis model

Selecting pyrolysisModel none

Constructing reacting cloud
Selecting DispersionModel none
Selecting DragModel SphereDrag
Selecting InjectionModel ConeInjection
    Constructing 2-D injection
Selecting pdfType RosinRammler
Selecting PatchInteractionModel StandardWallInteraction
Selecting PostProcessingModel none
Selecting U IntegrationScheme Euler
Selecting HeatTransferModel RanzMarshall
Selecting T IntegrationScheme Analytical
Selecting CompositionModel SinglePhaseMixture
Selecting PhaseChangeModel LiquidEvaporation
Courant Number mean: 0 max: 0

Starting time loop

Courant Number mean: 0 max: 0
deltaT = 0.0011976
cellSource HRR:
    total cells  = 1400
    total volume = 0.32



faceSource patchSides:
    total faces  = 80
    total area   = 0.16


faceSource patchOutlet:
    total faces  = 35
    total area   = 0.08


faceSource patchInlet:
    total faces  = 5
    total area   = 0.008


Reading/calculating field TMean

Reading/calculating field UMean

Reading/calculating field ftMean

Reading/calculating field dQMean

Reading/calculating field TPrime2Mean

Reading/calculating field ftPrime2Mean

fieldAverage: starting averaging at time 0

Time = 0.0011976

diagonal:  Solving for rho, Initial residual = 0, Final residual = 0, No Iterations 0
DILUPBiCG:  Solving for Ux, Initial residual = 1, Final residual = 7.38072e-07, No Iterations 1
DILUPBiCG:  Solving for Uy, Initial residual = 1, Final residual = 4.60623e-12, No Iterations 2
DILUPBiCG:  Solving for O2, Initial residual = 0.00677764, Final residual = 2.66382e-13, No Iterations 2
max of O2 = 0.23301
min of O2 = 0.23301
DILUPBiCG:  Solving for H2O, Initial residual = 0, Final residual = 0, No Iterations 0
max of H2O = 0
min of H2O = 0
DILUPBiCG:  Solving for CH4, Initial residual = 0.999998, Final residual = 3.05049e-15, No Iterations 2
max of CH4 = 1.19448e-09
min of CH4 = 1.03088e-275
DILUPBiCG:  Solving for CO2, Initial residual = 0, Final residual = 0, No Iterations 0
max of CO2 = 0
min of CO2 = 0
max of N2 = 0.76699
min of N2 = 0
DILUPBiCG:  Solving for hs, Initial residual = 0, Final residual = 0, No Iterations 0
GAMG:  Solving for p_rgh, Initial residual = 0.894675, Final residual = 0.00370442, No Iterations 4
diagonal:  Solving for rho, Initial residual = 0, Final residual = 0, No Iterations 0
time step continuity errors : sum local = 5.55703e-09, global = 2.25772e-09, cumulative = 2.25772e-09
GAMG:  Solving for p_rgh, Initial residual = 0.083296, Final residual = 7.6529e-07, No Iterations 8
diagonal:  Solving for rho, Initial residual = 0, Final residual = 0, No Iterations 0
time step continuity errors : sum local = 5.84728e-12, global = -2.04407e-12, cumulative = 2.25568e-09
DILUPBiCG:  Solving for k, Initial residual = 1, Final residual = 5.49462e-12, No Iterations 2
DILUPBiCG:  Solving for Ux, Initial residual = 2.14882e-05, Final residual = 1.29255e-11, No Iterations 1
DILUPBiCG:  Solving for Uy, Initial residual = 1.91901e-05, Final residual = 1.67233e-10, No Iterations 1
DILUPBiCG:  Solving for O2, Initial residual = 1, Final residual = 3.22488e-10, No Iterations 2
max of O2 = 0.23301
min of O2 = 0.00485014
DILUPBiCG:  Solving for H2O, Initial residual = 1, Final residual = 3.17924e-10, No Iterations 2
max of H2O = 0
min of H2O = -8.39655e-09
DILUPBiCG:  Solving for CH4, Initial residual = 1, Final residual = 3.22673e-10, No Iterations 2
max of CH4 = 0.979185
min of CH4 = 0
DILUPBiCG:  Solving for CO2, Initial residual = 1, Final residual = 3.16809e-10, No Iterations 2
max of CO2 = 0
min of CO2 = -1.25054e-08
max of N2 = 0.76699
min of N2 = 0
DILUPBiCG:  Solving for hs, Initial residual = 1, Final residual = 1.19829e-10, No Iterations 2
GAMG:  Solving for p_rgh, Initial residual = 0.0868539, Final residual = 0.00030533, No Iterations 4
diagonal:  Solving for rho, Initial residual = 0, Final residual = 0, No Iterations 0
time step continuity errors : sum local = 1.31604e-09, global = 6.09527e-10, cumulative = 2.8652e-09
GAMG:  Solving for p_rgh, Initial residual = 0.0494507, Final residual = 4.59033e-07, No Iterations 8
diagonal:  Solving for rho, Initial residual = 0, Final residual = 0, No Iterations 0
time step continuity errors : sum local = 2.9437e-12, global = 1.02864e-12, cumulative = 2.86623e-09
DILUPBiCG:  Solving for k, Initial residual = 0.0664514, Final residual = 4.74633e-11, No Iterations 2
DILUPBiCG:  Solving for Ux, Initial residual = 1.30083e-05, Final residual = 6.27299e-12, No Iterations 1
DILUPBiCG:  Solving for Uy, Initial residual = 1.65836e-05, Final residual = 1.97615e-10, No Iterations 1
DILUPBiCG:  Solving for O2, Initial residual = 0.00212162, Final residual = 2.38428e-12, No Iterations 2
max of O2 = 0.23301
min of O2 = 0.00477573
DILUPBiCG:  Solving for H2O, Initial residual = 1, Final residual = 6.01489e-10, No Iterations 1
max of H2O = 3.19495e-07
min of H2O = -9.79826e-07
DILUPBiCG:  Solving for CH4, Initial residual = 4.86128e-05, Final residual = 9.03715e-10, No Iterations 1
max of CH4 = 0.979504
min of CH4 = 0
DILUPBiCG:  Solving for CO2, Initial residual = 1, Final residual = 5.00923e-10, No Iterations 1
max of CO2 = 3.9025e-07
min of CO2 = -1.19683e-06
max of N2 = 0.76699
min of N2 = 0
DILUPBiCG:  Solving for hs, Initial residual = 0.311375, Final residual = 2.36109e-10, No Iterations 2
GAMG:  Solving for p_rgh, Initial residual = 0.0306636, Final residual = 8.74525e-05, No Iterations 4
diagonal:  Solving for rho, Initial residual = 0, Final residual = 0, No Iterations 0
time step continuity errors : sum local = 7.21829e-10, global = 3.45989e-10, cumulative = 3.21222e-09
GAMG:  Solving for p_rgh, Initial residual = 7.76486e-05, Final residual = 8.1214e-07, No Iterations 3
diagonal:  Solving for rho, Initial residual = 0, Final residual = 0, No Iterations 0
time step continuity errors : sum local = 7.63744e-12, global = -2.83768e-12, cumulative = 3.20938e-09
DILUPBiCG:  Solving for k, Initial residual = 0.0119169, Final residual = 1.44845e-11, No Iterations 2
ExecutionTime = 0.08 s  ClockTime = 0 s

Courant Number mean: 4.23136e-06 max: 0.000910922
deltaT = 0.00143023
faceSource patchSides output:
    sum(sides) for phi = 2.17718e-06
    sum(sides) for HRR_fu = -1.57198e-71
    sum(sides) for phiH = 7.4367e-05
    sum(sides) for phiHs = 1.89377e-06
    sum(sides) for phiHc = 7.22426e-05

faceSource patchOutlet output:
    sum(outlet) for phi = -5.02946e-07
    sum(outlet) for HRR_fu = -9.71972e-187
    sum(outlet) for phiH = -1.53399e-05
    sum(outlet) for phiHs = 1.3487e-06
    sum(outlet) for phiHc = -1.66886e-05

faceSource patchInlet output:
    sum(inlet) for phi = -0.000200001
    sum(inlet) for HRR_fu = 10006.4
    sum(inlet) for phiH = 944.867
    sum(inlet) for phiHs = 5.26833e-05
    sum(inlet) for phiHc = 944.867

Calculating averages

Time = 0.00262784

diagonal:  Solving for rho, Initial residual = 0, Final residual = 0, No Iterations 0
DILUPBiCG:  Solving for Ux, Initial residual = 0.373869, Final residual = 1.22028e-07, No Iterations 1
DILUPBiCG:  Solving for Uy, Initial residual = 0.272449, Final residual = 2.85166e-11, No Iterations 2
DILUPBiCG:  Solving for O2, Initial residual = 0.197848, Final residual = 3.76802e-10, No Iterations 2
max of O2 = 0.23301
min of O2 = 0.00477431
DILUPBiCG:  Solving for H2O, Initial residual = 0.0884297, Final residual = 8.70065e-12, No Iterations 2
max of H2O = 7.00845e-07
min of H2O = -1.05188e-06
DILUPBiCG:  Solving for CH4, Initial residual = 0.197846, Final residual = 3.79702e-10, No Iterations 2
max of CH4 = 0.97951
min of CH4 = 0
DILUPBiCG:  Solving for CO2, Initial residual = 0.0763459, Final residual = 7.52123e-12, No Iterations 2
max of CO2 = 8.56054e-07
min of CO2 = -1.28714e-06
max of N2 = 0.766992
min of N2 = 0
DILUPBiCG:  Solving for hs, Initial residual = 0.309916, Final residual = 3.08393e-10, No Iterations 2
GAMG:  Solving for p_rgh, Initial residual = 0.34044, Final residual = 0.00231456, No Iterations 3
diagonal:  Solving for rho, Initial residual = 0, Final residual = 0, No Iterations 0
time step continuity errors : sum local = 2.94537e-08, global = -6.10863e-10, cumulative = 2.59852e-09
GAMG:  Solving for p_rgh, Initial residual = 0.00139975, Final residual = 4.8549e-07, No Iterations 5
diagonal:  Solving for rho, Initial residual = 0, Final residual = 0, No Iterations 0
time step continuity errors : sum local = 1.02005e-11, global = -1.79384e-14, cumulative = 2.5985e-09
DILUPBiCG:  Solving for k, Initial residual = 0.970486, Final residual = 2.26098e-11, No Iterations 2
DILUPBiCG:  Solving for Ux, Initial residual = 6.66625e-06, Final residual = 6.08132e-12, No Iterations 1
DILUPBiCG:  Solving for Uy, Initial residual = 4.99965e-06, Final residual = 6.49658e-11, No Iterations 1
DILUPBiCG:  Solving for O2, Initial residual = 0.00136823, Final residual = 6.6063e-12, No Iterations 2
max of O2 = 0.23301
min of O2 = 0.00477439
DILUPBiCG:  Solving for H2O, Initial residual = 0.00586563, Final residual = 1.42792e-11, No Iterations 2
max of H2O = 1.15616e-06
min of H2O = -1.05678e-06
DILUPBiCG:  Solving for CH4, Initial residual = 2.47773e-05, Final residual = 5.97057e-10, No Iterations 1
max of CH4 = 0.97951
min of CH4 = 0
DILUPBiCG:  Solving for CO2, Initial residual = 0.0042904, Final residual = 1.1892e-11, No Iterations 2
max of CO2 = 1.4122e-06
min of CO2 = -1.29123e-06
max of N2 = 0.766992
min of N2 = 0
DILUPBiCG:  Solving for hs, Initial residual = 0.122831, Final residual = 6.18427e-11, No Iterations 2
GAMG:  Solving for p_rgh, Initial residual = 0.0191459, Final residual = 0.000130028, No Iterations 3
diagonal:  Solving for rho, Initial residual = 0, Final residual = 0, No Iterations 0
time step continuity errors : sum local = 2.71129e-09, global = -1.06968e-09, cumulative = 1.52882e-09
GAMG:  Solving for p_rgh, Initial residual = 0.000129887, Final residual = 3.84643e-07, No Iterations 4
diagonal:  Solving for rho, Initial residual = 0, Final residual = 0, No Iterations 0
time step continuity errors : sum local = 7.95502e-12, global = -2.71031e-12, cumulative = 1.52611e-09
DILUPBiCG:  Solving for k, Initial residual = 0.0081203, Final residual = 1.22236e-11, No Iterations 2
DILUPBiCG:  Solving for Ux, Initial residual = 6.0374e-07, Final residual = 5.59346e-13, No Iterations 1
DILUPBiCG:  Solving for Uy, Initial residual = 5.01477e-07, Final residual = 5.38363e-12, No Iterations 1
DILUPBiCG:  Solving for O2, Initial residual = 4.44512e-06, Final residual = 1.67245e-10, No Iterations 1
max of O2 = 0.23301
min of O2 = 0.00477433
DILUPBiCG:  Solving for H2O, Initial residual = 0.000433136, Final residual = 3.37358e-09, No Iterations 1
max of H2O = 1.15645e-06
min of H2O = -1.05702e-06
DILUPBiCG:  Solving for CH4, Initial residual = 3.39998e-06, Final residual = 1.16012e-10, No Iterations 1
max of CH4 = 0.97951
min of CH4 = 0
DILUPBiCG:  Solving for CO2, Initial residual = 0.000319622, Final residual = 2.80898e-09, No Iterations 1
max of CO2 = 1.41255e-06
min of CO2 = -1.2914e-06
max of N2 = 0.766992
min of N2 = 0
DILUPBiCG:  Solving for hs, Initial residual = 0.018299, Final residual = 6.42237e-12, No Iterations 2
GAMG:  Solving for p_rgh, Initial residual = 0.00270849, Final residual = 1.86437e-05, No Iterations 3
diagonal:  Solving for rho, Initial residual = 0, Final residual = 0, No Iterations 0
time step continuity errors : sum local = 3.8757e-10, global = -1.67381e-10, cumulative = 1.35873e-09
GAMG:  Solving for p_rgh, Initial residual = 1.85499e-05, Final residual = 9.94952e-07, No Iterations 2
diagonal:  Solving for rho, Initial residual = 0, Final residual = 0, No Iterations 0
time step continuity errors : sum local = 2.06149e-11, global = -7.93119e-12, cumulative = 1.3508e-09
DILUPBiCG:  Solving for k, Initial residual = 0.000762015, Final residual = 4.44131e-12, No Iterations 2
ExecutionTime = 0.12 s  ClockTime = 0 s

Courant Number mean: 1.18848e-05 max: 0.00108788
deltaT = 0.00170148
faceSource patchSides output:
    sum(sides) for phi = 4.63391e-05
    sum(sides) for HRR_fu = -1.9796e-64
    sum(sides) for phiH = 0.0015406
    sum(sides) for phiHs = 2.5151e-06
    sum(sides) for phiHc = 0.00153761

faceSource patchOutlet output:
    sum(outlet) for phi = -5.9832e-07
    sum(outlet) for HRR_fu = -9.74336e-175
    sum(outlet) for phiH = -1.69684e-05
    sum(outlet) for phiHs = 2.88483e-06
    sum(outlet) for phiHc = -1.98533e-05

faceSource patchInlet output:
    sum(inlet) for phi = -0.0002
    sum(inlet) for HRR_fu = 10006.3
    sum(inlet) for phiH = 944.856
    sum(inlet) for phiHs = 0.000122425
    sum(inlet) for phiHc = 944.856

Calculating averages

Time = 0.00432932

diagonal:  Solving for rho, Initial residual = 0, Final residual = 0, No Iterations 0
DILUPBiCG:  Solving for Ux, Initial residual = 0.266402, Final residual = 1.03457e-07, No Iterations 1
DILUPBiCG:  Solving for Uy, Initial residual = 0.211823, Final residual = 2.12914e-10, No Iterations 2
DILUPBiCG:  Solving for O2, Initial residual = 0.118539, Final residual = 7.71228e-10, No Iterations 2
max of O2 = 0.23301
min of O2 = 0.00477256
DILUPBiCG:  Solving for H2O, Initial residual = 0.00217613, Final residual = 1.20127e-11, No Iterations 2
max of H2O = 2.15091e-06
min of H2O = -1.05787e-06
DILUPBiCG:  Solving for CH4, Initial residual = 0.117972, Final residual = 7.63151e-10, No Iterations 2
max of CH4 = 0.979517
min of CH4 = 0
DILUPBiCG:  Solving for CO2, Initial residual = 0.00172924, Final residual = 9.58496e-12, No Iterations 2
max of CO2 = 2.62725e-06
min of CO2 = -1.29217e-06
max of N2 = 0.766992
min of N2 = 0
DILUPBiCG:  Solving for hs, Initial residual = 0.232119, Final residual = 7.1056e-10, No Iterations 2
GAMG:  Solving for p_rgh, Initial residual = 0.149423, Final residual = 0.000426843, No Iterations 4
diagonal:  Solving for rho, Initial residual = 0, Final residual = 0, No Iterations 0
time step continuity errors : sum local = 1.12073e-08, global = 4.52695e-09, cumulative = 5.87775e-09
GAMG:  Solving for p_rgh, Initial residual = 0.000333644, Final residual = 3.17883e-07, No Iterations 5
diagonal:  Solving for rho, Initial residual = 0, Final residual = 0, No Iterations 0
time step continuity errors : sum local = 1.09721e-11, global = -3.46367e-12, cumulative = 5.87428e-09
DILUPBiCG:  Solving for k, Initial residual = 0.94691, Final residual = 3.28576e-11, No Iterations 2
DILUPBiCG:  Solving for Ux, Initial residual = 1.78354e-06, Final residual = 1.28367e-12, No Iterations 1
DILUPBiCG:  Solving for Uy, Initial residual = 1.95782e-06, Final residual = 1.84227e-10, No Iterations 1
DILUPBiCG:  Solving for O2, Initial residual = 0.00114788, Final residual = 7.3821e-12, No Iterations 2
max of O2 = 0.23301
min of O2 = 0.00477262
DILUPBiCG:  Solving for H2O, Initial residual = 0.0638814, Final residual = 2.72705e-10, No Iterations 2
max of H2O = 2.79503e-06
min of H2O = -1.05697e-06
DILUPBiCG:  Solving for CH4, Initial residual = 3.51248e-06, Final residual = 1.26154e-10, No Iterations 1
max of CH4 = 0.979517
min of CH4 = 0
DILUPBiCG:  Solving for CO2, Initial residual = 0.0677885, Final residual = 2.62192e-10, No Iterations 2
max of CO2 = 3.41402e-06
min of CO2 = -1.29133e-06
max of N2 = 0.766992
min of N2 = 0
DILUPBiCG:  Solving for hs, Initial residual = 0.109675, Final residual = 4.07629e-10, No Iterations 2
GAMG:  Solving for p_rgh, Initial residual = 0.0152654, Final residual = 3.61895e-05, No Iterations 4
diagonal:  Solving for rho, Initial residual = 0, Final residual = 0, No Iterations 0
time step continuity errors : sum local = 1.23858e-09, global = -3.33105e-12, cumulative = 5.87095e-09
GAMG:  Solving for p_rgh, Initial residual = 3.72977e-05, Final residual = 4.20913e-07, No Iterations 3
diagonal:  Solving for rho, Initial residual = 0, Final residual = 0, No Iterations 0
time step continuity errors : sum local = 1.42009e-11, global = -2.36281e-13, cumulative = 5.87072e-09
DILUPBiCG:  Solving for k, Initial residual = 0.00882426, Final residual = 8.62753e-11, No Iterations 2
DILUPBiCG:  Solving for Ux, Initial residual = 4.53512e-07, Final residual = 9.27874e-13, No Iterations 1
DILUPBiCG:  Solving for Uy, Initial residual = 5.27801e-07, Final residual = 1.11135e-11, No Iterations 1
DILUPBiCG:  Solving for O2, Initial residual = 1.23178e-05, Final residual = 4.86597e-10, No Iterations 1
max of O2 = 0.23301
min of O2 = 0.00477253
DILUPBiCG:  Solving for H2O, Initial residual = 0.000473859, Final residual = 2.22904e-11, No Iterations 1
max of H2O = 2.79542e-06
min of H2O = -1.05743e-06
DILUPBiCG:  Solving for CH4, Initial residual = 1.16866e-05, Final residual = 3.37896e-10, No Iterations 1
max of CH4 = 0.979517
min of CH4 = 0
DILUPBiCG:  Solving for CO2, Initial residual = 0.000300312, Final residual = 2.45634e-11, No Iterations 1
max of CO2 = 3.4145e-06
min of CO2 = -1.29161e-06
max of N2 = 0.766992
min of N2 = 0
DILUPBiCG:  Solving for hs, Initial residual = 0.0117736, Final residual = 5.57661e-12, No Iterations 2
GAMG:  Solving for p_rgh, Initial residual = 0.00155457, Final residual = 1.42213e-05, No Iterations 3
diagonal:  Solving for rho, Initial residual = 0, Final residual = 0, No Iterations 0
time step continuity errors : sum local = 4.78873e-10, global = 6.13319e-11, cumulative = 5.93205e-09
GAMG:  Solving for p_rgh, Initial residual = 1.42974e-05, Final residual = 7.11808e-07, No Iterations 2
diagonal:  Solving for rho, Initial residual = 0, Final residual = 0, No Iterations 0
time step continuity errors : sum local = 2.38823e-11, global = 2.64921e-12, cumulative = 5.9347e-09
DILUPBiCG:  Solving for k, Initial residual = 0.000443934, Final residual = 1.0031e-11, No Iterations 2
ExecutionTime = 0.17 s  ClockTime = 0 s

Courant Number mean: 2.3267e-05 max: 0.00129422
deltaT = 0.00203824
faceSource patchSides output:
    sum(sides) for phi = 0.000180169
    sum(sides) for HRR_fu = -1.55865e-59
    sum(sides) for phiH = 0.00598741
    sum(sides) for phiHs = 9.00236e-06
    sum(sides) for phiHc = 0.00597832

faceSource patchOutlet output:
    sum(outlet) for phi = -7.03005e-07
    sum(outlet) for HRR_fu = -1.84429e-166
    sum(outlet) for phiH = -1.55808e-05
    sum(outlet) for phiHs = 7.74607e-06
    sum(outlet) for phiHc = -2.33269e-05

faceSource patchInlet output:
    sum(inlet) for phi = -0.0002
    sum(inlet) for HRR_fu = 10006.3
    sum(inlet) for phiH = 944.851
    sum(inlet) for phiHs = 0.000268894
    sum(inlet) for phiHc = 944.851

Calculating averages

Time = 0.00636756

diagonal:  Solving for rho, Initial residual = 0, Final residual = 0, No Iterations 0
DILUPBiCG:  Solving for Ux, Initial residual = 0.208629, Final residual = 1.83478e-07, No Iterations 1
DILUPBiCG:  Solving for Uy, Initial residual = 0.182778, Final residual = 2.24669e-11, No Iterations 2
DILUPBiCG:  Solving for O2, Initial residual = 0.0896052, Final residual = 1.00855e-09, No Iterations 2
max of O2 = 0.23301
min of O2 = 0.00477041
DILUPBiCG:  Solving for H2O, Initial residual = 0.12957, Final residual = 1.23828e-09, No Iterations 2
max of H2O = 4.75587e-06
min of H2O = -1.05736e-06
DILUPBiCG:  Solving for CH4, Initial residual = 0.0886488, Final residual = 1.00031e-09, No Iterations 2
max of CH4 = 0.979526
min of CH4 = 0
DILUPBiCG:  Solving for CO2, Initial residual = 0.130402, Final residual = 1.20581e-09, No Iterations 2
max of CO2 = 5.80911e-06
min of CO2 = -1.29154e-06
max of N2 = 0.766992
min of N2 = 0
DILUPBiCG:  Solving for hs, Initial residual = 0.214538, Final residual = 1.71879e-09, No Iterations 2
GAMG:  Solving for p_rgh, Initial residual = 0.0787719, Final residual = 0.000247782, No Iterations 4
diagonal:  Solving for rho, Initial residual = 0, Final residual = 0, No Iterations 0
time step continuity errors : sum local = 1.06615e-08, global = 3.56771e-09, cumulative = 9.50241e-09
GAMG:  Solving for p_rgh, Initial residual = 0.000237886, Final residual = 2.61885e-07, No Iterations 5
diagonal:  Solving for rho, Initial residual = 0, Final residual = 0, No Iterations 0
time step continuity errors : sum local = 1.20018e-11, global = -3.57025e-12, cumulative = 9.49884e-09
DILUPBiCG:  Solving for k, Initial residual = 0.928232, Final residual = 7.77041e-11, No Iterations 2
DILUPBiCG:  Solving for Ux, Initial residual = 5.16732e-07, Final residual = 5.16732e-07, No Iterations 0
DILUPBiCG:  Solving for Uy, Initial residual = 1.54144e-06, Final residual = 3.60082e-11, No Iterations 1
DILUPBiCG:  Solving for O2, Initial residual = 0.0011098, Final residual = 1.22603e-11, No Iterations 2
max of O2 = 0.23301
min of O2 = 0.00477043
DILUPBiCG:  Solving for H2O, Initial residual = 0.0894212, Final residual = 3.9531e-10, No Iterations 2
max of H2O = 5.67951e-06
min of H2O = -1.05737e-06
DILUPBiCG:  Solving for CH4, Initial residual = 2.7461e-06, Final residual = 1.08449e-10, No Iterations 1
max of CH4 = 0.979526
min of CH4 = 0
DILUPBiCG:  Solving for CO2, Initial residual = 0.0915595, Final residual = 3.75719e-10, No Iterations 2
max of CO2 = 6.9373e-06
min of CO2 = -1.29155e-06
max of N2 = 0.766992
min of N2 = 0
DILUPBiCG:  Solving for hs, Initial residual = 0.11086, Final residual = 8.18187e-10, No Iterations 2
GAMG:  Solving for p_rgh, Initial residual = 0.0144207, Final residual = 4.22337e-05, No Iterations 4
diagonal:  Solving for rho, Initial residual = 0, Final residual = 0, No Iterations 0
time step continuity errors : sum local = 1.92221e-09, global = -3.8944e-10, cumulative = 9.1094e-09
GAMG:  Solving for p_rgh, Initial residual = 4.41706e-05, Final residual = 6.97481e-07, No Iterations 3
diagonal:  Solving for rho, Initial residual = 0, Final residual = 0, No Iterations 0
time step continuity errors : sum local = 3.10157e-11, global = 7.2864e-12, cumulative = 9.11668e-09
DILUPBiCG:  Solving for k, Initial residual = 0.00778819, Final residual = 1.43646e-10, No Iterations 2
DILUPBiCG:  Solving for Ux, Initial residual = 5.43357e-07, Final residual = 1.36313e-12, No Iterations 1
DILUPBiCG:  Solving for Uy, Initial residual = 8.68717e-07, Final residual = 1.93537e-11, No Iterations 1
DILUPBiCG:  Solving for O2, Initial residual = 1.56243e-05, Final residual = 7.33595e-10, No Iterations 1
max of O2 = 0.23301
min of O2 = 0.00477035
DILUPBiCG:  Solving for H2O, Initial residual = 0.000966399, Final residual = 8.59653e-09, No Iterations 1
max of H2O = 5.68012e-06
min of H2O = -1.05737e-06
DILUPBiCG:  Solving for CH4, Initial residual = 1.49626e-05, Final residual = 5.20778e-10, No Iterations 1
max of CH4 = 0.979526
min of CH4 = 0
DILUPBiCG:  Solving for CO2, Initial residual = 0.000961636, Final residual = 7.51907e-09, No Iterations 1
max of CO2 = 6.93805e-06
min of CO2 = -1.29154e-06
max of N2 = 0.766992
min of N2 = 0
DILUPBiCG:  Solving for hs, Initial residual = 0.0123221, Final residual = 1.66635e-11, No Iterations 2
GAMG:  Solving for p_rgh, Initial residual = 0.00158226, Final residual = 4.39443e-06, No Iterations 4
diagonal:  Solving for rho, Initial residual = 0, Final residual = 0, No Iterations 0
time step continuity errors : sum local = 1.95187e-10, global = -6.61648e-11, cumulative = 9.05052e-09
GAMG:  Solving for p_rgh, Initial residual = 4.49351e-06, Final residual = 3.00816e-07, No Iterations 2
diagonal:  Solving for rho, Initial residual = 0, Final residual = 0, No Iterations 0
time step continuity errors : sum local = 1.32933e-11, global = -3.85943e-12, cumulative = 9.04666e-09
DILUPBiCG:  Solving for k, Initial residual = 0.00045097, Final residual = 2.59845e-11, No Iterations 2
ExecutionTime = 0.22 s  ClockTime = 0 s

Courant Number mean: 3.85833e-05 max: 0.00155039
deltaT = 0.00242041
faceSource patchSides output:
    sum(sides) for phi = 0.000400007
    sum(sides) for HRR_fu = -4.46501e-56
    sum(sides) for phiH = 0.0132957
    sum(sides) for phiHs = 2.34025e-05
    sum(sides) for phiHc = 0.0132729

faceSource patchOutlet output:
    sum(outlet) for phi = -8.10029e-07
    sum(outlet) for HRR_fu = -2.86256e-159
    sum(outlet) for phiH = -4.31015e-06
    sum(outlet) for phiHs = 2.2568e-05
    sum(outlet) for phiHc = -2.68781e-05

faceSource patchInlet output:
    sum(inlet) for phi = -0.0002
    sum(inlet) for HRR_fu = 10006.3
    sum(inlet) for phiH = 944.845
    sum(inlet) for phiHs = 0.000534533
    sum(inlet) for phiHc = 944.845

Calculating averages

Time = 0.00878796

diagonal:  Solving for rho, Initial residual = 0, Final residual = 0, No Iterations 0
DILUPBiCG:  Solving for Ux, Initial residual = 0.168, Final residual = 3.40456e-07, No Iterations 1
DILUPBiCG:  Solving for Uy, Initial residual = 0.142512, Final residual = 1.07257e-10, No Iterations 2
DILUPBiCG:  Solving for O2, Initial residual = 0.074147, Final residual = 1.45954e-09, No Iterations 2
max of O2 = 0.23301
min of O2 = 0.0047678
DILUPBiCG:  Solving for H2O, Initial residual = 0.139582, Final residual = 2.2414e-09, No Iterations 2
max of H2O = 9.09962e-06
min of H2O = -1.05731e-06
DILUPBiCG:  Solving for CH4, Initial residual = 0.0728408, Final residual = 1.44371e-09, No Iterations 2
max of CH4 = 0.979537
min of CH4 = 0
DILUPBiCG:  Solving for CO2, Initial residual = 0.135375, Final residual = 2.1697e-09, No Iterations 2
max of CO2 = 1.11148e-05
min of CO2 = -1.29147e-06
max of N2 = 0.766992
min of N2 = 0
DILUPBiCG:  Solving for hs, Initial residual = 0.192949, Final residual = 3.15762e-09, No Iterations 2
GAMG:  Solving for p_rgh, Initial residual = 0.0585441, Final residual = 0.000202701, No Iterations 4
diagonal:  Solving for rho, Initial residual = 0, Final residual = 0, No Iterations 0
time step continuity errors : sum local = 1.14462e-08, global = -2.23375e-09, cumulative = 6.81291e-09
GAMG:  Solving for p_rgh, Initial residual = 0.000249104, Final residual = 3.27421e-07, No Iterations 5
diagonal:  Solving for rho, Initial residual = 0, Final residual = 0, No Iterations 0
time step continuity errors : sum local = 1.49121e-11, global = 1.95509e-12, cumulative = 6.81486e-09
DILUPBiCG:  Solving for k, Initial residual = 0.910712, Final residual = 2.22217e-10, No Iterations 2
DILUPBiCG:  Solving for Ux, Initial residual = 3.20663e-07, Final residual = 3.20663e-07, No Iterations 0
DILUPBiCG:  Solving for Uy, Initial residual = 1.2792e-06, Final residual = 4.27455e-11, No Iterations 1
DILUPBiCG:  Solving for O2, Initial residual = 0.00112452, Final residual = 2.29572e-11, No Iterations 2
max of O2 = 0.23301
min of O2 = 0.0047678
DILUPBiCG:  Solving for H2O, Initial residual = 0.0416047, Final residual = 5.33651e-10, No Iterations 2
max of H2O = 1.04009e-05
min of H2O = -1.05731e-06
DILUPBiCG:  Solving for CH4, Initial residual = 1.64606e-06, Final residual = 1.19906e-10, No Iterations 1
max of CH4 = 0.979537
min of CH4 = 0
DILUPBiCG:  Solving for CO2, Initial residual = 0.0370233, Final residual = 5.0506e-10, No Iterations 2
max of CO2 = 1.27043e-05
min of CO2 = -1.29147e-06
max of N2 = 0.766992
min of N2 = 0
DILUPBiCG:  Solving for hs, Initial residual = 0.0783545, Final residual = 1.18217e-09, No Iterations 2
GAMG:  Solving for p_rgh, Initial residual = 0.0152994, Final residual = 7.37484e-05, No Iterations 4
diagonal:  Solving for rho, Initial residual = 0, Final residual = 0, No Iterations 0
time step continuity errors : sum local = 3.35072e-09, global = -5.31744e-10, cumulative = 6.28312e-09
GAMG:  Solving for p_rgh, Initial residual = 7.68846e-05, Final residual = 3.39873e-07, No Iterations 4
diagonal:  Solving for rho, Initial residual = 0, Final residual = 0, No Iterations 0
time step continuity errors : sum local = 1.51686e-11, global = -2.39608e-12, cumulative = 6.28072e-09
DILUPBiCG:  Solving for k, Initial residual = 0.00751439, Final residual = 3.08056e-10, No Iterations 2
DILUPBiCG:  Solving for Ux, Initial residual = 6.22813e-07, Final residual = 2.11809e-12, No Iterations 1
DILUPBiCG:  Solving for Uy, Initial residual = 1.27229e-06, Final residual = 2.89338e-11, No Iterations 1
DILUPBiCG:  Solving for O2, Initial residual = 2.05454e-05, Final residual = 1.19952e-09, No Iterations 1
max of O2 = 0.23301
min of O2 = 0.00476773
DILUPBiCG:  Solving for H2O, Initial residual = 0.000142783, Final residual = 7.86853e-13, No Iterations 2
max of H2O = 1.04018e-05
min of H2O = -1.05731e-06
DILUPBiCG:  Solving for CH4, Initial residual = 1.9835e-05, Final residual = 8.54006e-10, No Iterations 1
max of CH4 = 0.979537
min of CH4 = 0
DILUPBiCG:  Solving for CO2, Initial residual = 0.000122991, Final residual = 4.10999e-09, No Iterations 1
max of CO2 = 1.27054e-05
min of CO2 = -1.29147e-06
max of N2 = 0.766992
min of N2 = 0
DILUPBiCG:  Solving for hs, Initial residual = 0.0079159, Final residual = 2.53516e-11, No Iterations 2
GAMG:  Solving for p_rgh, Initial residual = 0.00167731, Final residual = 7.34598e-06, No Iterations 4
diagonal:  Solving for rho, Initial residual = 0, Final residual = 0, No Iterations 0
time step continuity errors : sum local = 3.2754e-10, global = -7.85035e-11, cumulative = 6.20222e-09
GAMG:  Solving for p_rgh, Initial residual = 7.46951e-06, Final residual = 5.23162e-07, No Iterations 2
diagonal:  Solving for rho, Initial residual = 0, Final residual = 0, No Iterations 0
time step continuity errors : sum local = 2.3255e-11, global = -5.01132e-12, cumulative = 6.19721e-09
DILUPBiCG:  Solving for k, Initial residual = 0.000377165, Final residual = 9.6083e-10, No Iterations 2
ExecutionTime = 0.24 s  ClockTime = 0 s

Courant Number mean: 5.53599e-05 max: 0.0018411
deltaT = 0.00289715
faceSource patchSides output:
    sum(sides) for phi = 0.000616532
    sum(sides) for HRR_fu = -1.22678e-53
    sum(sides) for phiH = 0.0204816
    sum(sides) for phiHs = 2.47271e-05
    sum(sides) for phiHc = 0.0204576

faceSource patchOutlet output:
    sum(outlet) for phi = -9.05968e-07
    sum(outlet) for HRR_fu = -4.09547e-154
    sum(outlet) for phiH = 1.4252e-05
    sum(outlet) for phiHs = 4.43136e-05
    sum(outlet) for phiHc = -3.00616e-05

faceSource patchInlet output:
    sum(inlet) for phi = -0.0002
    sum(inlet) for HRR_fu = 10006.3
    sum(inlet) for phiH = 944.838
    sum(inlet) for phiHs = 0.000972323
    sum(inlet) for phiHc = 944.837

Calculating averages

Time = 0.0116851

diagonal:  Solving for rho, Initial residual = 0, Final residual = 0, No Iterations 0
DILUPBiCG:  Solving for Ux, Initial residual = 0.12805, Final residual = 4.43023e-07, No Iterations 1
DILUPBiCG:  Solving for Uy, Initial residual = 0.0736031, Final residual = 8.07549e-11, No Iterations 2
DILUPBiCG:  Solving for O2, Initial residual = 0.0655048, Final residual = 2.51575e-09, No Iterations 2
max of O2 = 0.23301
min of O2 = 0.00476461
DILUPBiCG:  Solving for H2O, Initial residual = 0.0797904, Final residual = 2.87608e-09, No Iterations 2
max of H2O = 1.60413e-05
min of H2O = -1.05722e-06
DILUPBiCG:  Solving for CH4, Initial residual = 0.0638269, Final residual = 2.4804e-09, No Iterations 2
max of CH4 = 0.979549
min of CH4 = 0
DILUPBiCG:  Solving for CO2, Initial residual = 0.0720252, Final residual = 2.61959e-09, No Iterations 2
max of CO2 = 1.95939e-05
min of CO2 = -1.29137e-06
max of N2 = 0.766992
min of N2 = 0
DILUPBiCG:  Solving for hs, Initial residual = 0.155649, Final residual = 5.25208e-09, No Iterations 2
GAMG:  Solving for p_rgh, Initial residual = 0.0664603, Final residual = 0.000143055, No Iterations 4
diagonal:  Solving for rho, Initial residual = 0, Final residual = 0, No Iterations 0
time step continuity errors : sum local = 8.61031e-09, global = -2.257e-09, cumulative = 3.94021e-09
GAMG:  Solving for p_rgh, Initial residual = 0.000279357, Final residual = 4.0372e-07, No Iterations 5
diagonal:  Solving for rho, Initial residual = 0, Final residual = 0, No Iterations 0
time step continuity errors : sum local = 1.22638e-11, global = 8.08875e-14, cumulative = 3.94029e-09
DILUPBiCG:  Solving for k, Initial residual = 0.8962, Final residual = 5.70941e-10, No Iterations 2
DILUPBiCG:  Solving for Ux, Initial residual = 4.22266e-07, Final residual = 4.22266e-07, No Iterations 0
DILUPBiCG:  Solving for Uy, Initial residual = 7.29276e-07, Final residual = 7.29276e-07, No Iterations 0
DILUPBiCG:  Solving for O2, Initial residual = 0.00119817, Final residual = 4.80183e-11, No Iterations 2
max of O2 = 0.23301
min of O2 = 0.00476459
DILUPBiCG:  Solving for H2O, Initial residual = 0.0128545, Final residual = 4.93141e-10, No Iterations 2
max of H2O = 1.79036e-05
min of H2O = -1.05721e-06
DILUPBiCG:  Solving for CH4, Initial residual = 1.52782e-06, Final residual = 4.62979e-09, No Iterations 1
max of CH4 = 0.979549
min of CH4 = 0
DILUPBiCG:  Solving for CO2, Initial residual = 0.0109567, Final residual = 4.26146e-10, No Iterations 2
max of CO2 = 2.18685e-05
min of CO2 = -1.29135e-06
max of N2 = 0.766992
min of N2 = 0
DILUPBiCG:  Solving for hs, Initial residual = 0.0444413, Final residual = 1.48394e-09, No Iterations 2
GAMG:  Solving for p_rgh, Initial residual = 0.0218993, Final residual = 0.000167923, No Iterations 4
diagonal:  Solving for rho, Initial residual = 0, Final residual = 0, No Iterations 0
time step continuity errors : sum local = 5.11702e-09, global = 2.0618e-11, cumulative = 3.96091e-09
GAMG:  Solving for p_rgh, Initial residual = 0.000163574, Final residual = 9.31074e-07, No Iterations 4
diagonal:  Solving for rho, Initial residual = 0, Final residual = 0, No Iterations 0
time step continuity errors : sum local = 2.96413e-11, global = 3.01188e-13, cumulative = 3.96121e-09
DILUPBiCG:  Solving for k, Initial residual = 0.00734297, Final residual = 9.85999e-10, No Iterations 2
DILUPBiCG:  Solving for Ux, Initial residual = 8.75536e-07, Final residual = 4.2846e-12, No Iterations 1
DILUPBiCG:  Solving for Uy, Initial residual = 1.99306e-06, Final residual = 4.91113e-11, No Iterations 1
DILUPBiCG:  Solving for O2, Initial residual = 2.86558e-05, Final residual = 2.11854e-09, No Iterations 1
max of O2 = 0.23301
min of O2 = 0.00476452
DILUPBiCG:  Solving for H2O, Initial residual = 3.08639e-05, Final residual = 1.29316e-09, No Iterations 1
max of H2O = 1.79048e-05
min of H2O = -1.0572e-06
DILUPBiCG:  Solving for CH4, Initial residual = 2.79408e-05, Final residual = 1.51058e-09, No Iterations 1
max of CH4 = 0.979549
min of CH4 = 0
DILUPBiCG:  Solving for CO2, Initial residual = 2.58008e-05, Final residual = 1.11655e-09, No Iterations 1
max of CO2 = 2.187e-05
min of CO2 = -1.29134e-06
max of N2 = 0.766992
min of N2 = 0
DILUPBiCG:  Solving for hs, Initial residual = 0.00599389, Final residual = 2.46861e-11, No Iterations 2
GAMG:  Solving for p_rgh, Initial residual = 0.00304539, Final residual = 1.24122e-05, No Iterations 4
diagonal:  Solving for rho, Initial residual = 0, Final residual = 0, No Iterations 0
time step continuity errors : sum local = 3.94142e-10, global = 6.089e-11, cumulative = 4.0221e-09
GAMG:  Solving for p_rgh, Initial residual = 1.21494e-05, Final residual = 9.40303e-07, No Iterations 2
diagonal:  Solving for rho, Initial residual = 0, Final residual = 0, No Iterations 0
time step continuity errors : sum local = 3.0076e-11, global = 2.94894e-12, cumulative = 4.02505e-09
DILUPBiCG:  Solving for k, Initial residual = 0.000319715, Final residual = 2.77619e-11, No Iterations 2
ExecutionTime = 0.27 s  ClockTime = 0 s

Courant Number mean: 7.17205e-05 max: 0.00220376
deltaT = 0.00342391
faceSource patchSides output:
    sum(sides) for phi = 0.000738494
    sum(sides) for HRR_fu = -9.04367e-52
    sum(sides) for phiH = 0.0245154
    sum(sides) for phiHs = 1.10955e-05
    sum(sides) for phiHc = 0.0245045

faceSource patchOutlet output:
    sum(outlet) for phi = -1.07037e-06
    sum(outlet) for HRR_fu = -9.0541e-151
    sum(outlet) for phiH = 1.33482e-05
    sum(outlet) for phiHs = 4.88647e-05
    sum(outlet) for phiHc = -3.55166e-05

faceSource patchInlet output:
    sum(inlet) for phi = -0.0002
    sum(inlet) for HRR_fu = 10006.3
    sum(inlet) for phiH = 944.83
    sum(inlet) for phiHs = 0.00166982
    sum(inlet) for phiHc = 944.828

Calculating averages

Time = 0.015109

diagonal:  Solving for rho, Initial residual = 0, Final residual = 0, No Iterations 0
DILUPBiCG:  Solving for Ux, Initial residual = 0.0756908, Final residual = 2.94233e-07, No Iterations 1
DILUPBiCG:  Solving for Uy, Initial residual = 0.0291001, Final residual = 8.12444e-07, No Iterations 1
DILUPBiCG:  Solving for O2, Initial residual = 0.0592509, Final residual = 4.7272e-09, No Iterations 2
max of O2 = 0.23301
min of O2 = 0.00476076
DILUPBiCG:  Solving for H2O, Initial residual = 0.0405639, Final residual = 3.24711e-09, No Iterations 2
max of H2O = 2.67493e-05
min of H2O = -1.058e-06
DILUPBiCG:  Solving for CH4, Initial residual = 0.0571883, Final residual = 4.66146e-09, No Iterations 2
max of CH4 = 0.979564
min of CH4 = 0
DILUPBiCG:  Solving for CO2, Initial residual = 0.0356047, Final residual = 2.85585e-09, No Iterations 2
max of CO2 = 3.26733e-05
min of CO2 = -1.29234e-06
max of N2 = 0.766992
min of N2 = 0
DILUPBiCG:  Solving for hs, Initial residual = 0.127827, Final residual = 9.30443e-09, No Iterations 2
GAMG:  Solving for p_rgh, Initial residual = 0.0865311, Final residual = 0.000203425, No Iterations 4
diagonal:  Solving for rho, Initial residual = 0, Final residual = 0, No Iterations 0
time step continuity errors : sum local = 9.03209e-09, global = -2.10584e-09, cumulative = 1.9192e-09
GAMG:  Solving for p_rgh, Initial residual = 0.00132423, Final residual = 5.965e-07, No Iterations 6
diagonal:  Solving for rho, Initial residual = 0, Final residual = 0, No Iterations 0
time step continuity errors : sum local = 4.15187e-12, global = -2.61519e-13, cumulative = 1.91894e-09
DILUPBiCG:  Solving for k, Initial residual = 0.880712, Final residual = 1.43439e-09, No Iterations 2
DILUPBiCG:  Solving for Ux, Initial residual = 2.51293e-07, Final residual = 2.51293e-07, No Iterations 0
DILUPBiCG:  Solving for Uy, Initial residual = 6.48121e-07, Final residual = 6.48121e-07, No Iterations 0
DILUPBiCG:  Solving for O2, Initial residual = 0.00127676, Final residual = 1.04784e-10, No Iterations 2
max of O2 = 0.23301
min of O2 = 0.0047607
DILUPBiCG:  Solving for H2O, Initial residual = 0.00533654, Final residual = 4.49437e-10, No Iterations 2
max of H2O = 2.93469e-05
min of H2O = -1.05799e-06
DILUPBiCG:  Solving for CH4, Initial residual = 1.06108e-06, Final residual = 1.10839e-10, No Iterations 1
max of CH4 = 0.979564
min of CH4 = 0
DILUPBiCG:  Solving for CO2, Initial residual = 0.00500947, Final residual = 4.2016e-10, No Iterations 2
max of CO2 = 3.58461e-05
min of CO2 = -1.29231e-06
max of N2 = 0.766992
min of N2 = 0
DILUPBiCG:  Solving for hs, Initial residual = 0.0326113, Final residual = 2.43186e-09, No Iterations 2
GAMG:  Solving for p_rgh, Initial residual = 0.111287, Final residual = 0.000963723, No Iterations 4
diagonal:  Solving for rho, Initial residual = 0, Final residual = 0, No Iterations 0
time step continuity errors : sum local = 6.87787e-09, global = 4.59816e-10, cumulative = 2.37876e-09
GAMG:  Solving for p_rgh, Initial residual = 0.000791348, Final residual = 5.06551e-07, No Iterations 6
diagonal:  Solving for rho, Initial residual = 0, Final residual = 0, No Iterations 0
time step continuity errors : sum local = 4.51168e-12, global = 1.37124e-13, cumulative = 2.3789e-09
DILUPBiCG:  Solving for k, Initial residual = 0.00714451, Final residual = 5.20245e-16, No Iterations 3
DILUPBiCG:  Solving for Ux, Initial residual = 1.35338e-06, Final residual = 9.56875e-12, No Iterations 1
DILUPBiCG:  Solving for Uy, Initial residual = 3.06084e-06, Final residual = 1.67172e-10, No Iterations 1
DILUPBiCG:  Solving for O2, Initial residual = 3.93386e-05, Final residual = 3.59334e-09, No Iterations 1
max of O2 = 0.23301
min of O2 = 0.00476063
DILUPBiCG:  Solving for H2O, Initial residual = 1.37753e-05, Final residual = 9.08483e-10, No Iterations 1
max of H2O = 2.93482e-05
min of H2O = -1.05799e-06
DILUPBiCG:  Solving for CH4, Initial residual = 3.87351e-05, Final residual = 2.60333e-09, No Iterations 1
max of CH4 = 0.979564
min of CH4 = 0
DILUPBiCG:  Solving for CO2, Initial residual = 4.4968e-05, Final residual = 2.17856e-09, No Iterations 1
max of CO2 = 3.58477e-05
min of CO2 = -1.29231e-06
max of N2 = 0.766992
min of N2 = 0
DILUPBiCG:  Solving for hs, Initial residual = 0.00487637, Final residual = 2.74995e-11, No Iterations 2
GAMG:  Solving for p_rgh, Initial residual = 0.0146685, Final residual = 5.80158e-05, No Iterations 4
diagonal:  Solving for rho, Initial residual = 0, Final residual = 0, No Iterations 0
time step continuity errors : sum local = 5.09285e-10, global = 1.19975e-10, cumulative = 2.49887e-09
GAMG:  Solving for p_rgh, Initial residual = 5.04962e-05, Final residual = 3.51931e-07, No Iterations 4
diagonal:  Solving for rho, Initial residual = 0, Final residual = 0, No Iterations 0
time step continuity errors : sum local = 3.49863e-12, global = 2.73488e-13, cumulative = 2.49915e-09
DILUPBiCG:  Solving for k, Initial residual = 0.00030323, Final residual = 1.90734e-11, No Iterations 2
ExecutionTime = 0.31 s  ClockTime = 0 s

Courant Number mean: 8.61707e-05 max: 0.00260445
deltaT = 0.00401937
faceSource patchSides output:
    sum(sides) for phi = 0.000744278
    sum(sides) for HRR_fu = -3.02366e-50
    sum(sides) for phiH = 0.0246963
    sum(sides) for phiHs = -6.81496e-07
    sum(sides) for phiHc = 0.0246964

faceSource patchOutlet output:
    sum(outlet) for phi = -1.36063e-06
    sum(outlet) for HRR_fu = -2.4129e-148
    sum(outlet) for phiH = -2.25946e-05
    sum(outlet) for phiHs = 2.25535e-05
    sum(outlet) for phiHc = -4.51481e-05

faceSource patchInlet output:
    sum(inlet) for phi = -0.0002
    sum(inlet) for HRR_fu = 10006.3
    sum(inlet) for phiH = 944.821
    sum(inlet) for phiHs = 0.00273562
    sum(inlet) for phiHc = 944.818

Calculating averages

Time = 0.0191284

diagonal:  Solving for rho, Initial residual = 0, Final residual = 0, No Iterations 0
DILUPBiCG:  Solving for Ux, Initial residual = 0.0264023, Final residual = 2.99406e-08, No Iterations 1
DILUPBiCG:  Solving for Uy, Initial residual = 0.047244, Final residual = 2.18202e-10, No Iterations 2
DILUPBiCG:  Solving for O2, Initial residual = 0.0547431, Final residual = 1.32986e-16, No Iterations 3
max of O2 = 0.23301
min of O2 = 0.0047561
DILUPBiCG:  Solving for H2O, Initial residual = 0.0207985, Final residual = 3.97593e-09, No Iterations 2
max of H2O = 4.27413e-05
min of H2O = -1.05803e-06
DILUPBiCG:  Solving for CH4, Initial residual = 0.0522705, Final residual = 1.28591e-16, No Iterations 3
max of CH4 = 0.979581
min of CH4 = 0
DILUPBiCG:  Solving for CO2, Initial residual = 0.0178265, Final residual = 3.40328e-09, No Iterations 2
max of CO2 = 5.22068e-05
min of CO2 = -1.29235e-06
max of N2 = 0.766992
min of N2 = 0
DILUPBiCG:  Solving for hs, Initial residual = 0.106533, Final residual = 5.14263e-15, No Iterations 3
GAMG:  Solving for p_rgh, Initial residual = 0.205844, Final residual = 0.000852879, No Iterations 4
diagonal:  Solving for rho, Initial residual = 0, Final residual = 0, No Iterations 0
time step continuity errors : sum local = 1.10759e-08, global = -1.1283e-09, cumulative = 1.37084e-09
GAMG:  Solving for p_rgh, Initial residual = 0.000420633, Final residual = 3.34243e-07, No Iterations 6
diagonal:  Solving for rho, Initial residual = 0, Final residual = 0, No Iterations 0
time step continuity errors : sum local = 9.25926e-12, global = -3.5989e-13, cumulative = 1.37048e-09
DILUPBiCG:  Solving for k, Initial residual = 0.863402, Final residual = 2.12249e-09, No Iterations 2
DILUPBiCG:  Solving for Ux, Initial residual = 3.07239e-07, Final residual = 3.07239e-07, No Iterations 0
DILUPBiCG:  Solving for Uy, Initial residual = 8.7136e-07, Final residual = 8.7136e-07, No Iterations 0
DILUPBiCG:  Solving for O2, Initial residual = 0.0013684, Final residual = 2.61032e-10, No Iterations 2
max of O2 = 0.23301
min of O2 = 0.00475599
DILUPBiCG:  Solving for H2O, Initial residual = 0.0197476, Final residual = 3.86105e-09, No Iterations 2
max of H2O = 4.63152e-05
min of H2O = -1.05796e-06
DILUPBiCG:  Solving for CH4, Initial residual = 1.29066e-06, Final residual = 1.38975e-10, No Iterations 1
max of CH4 = 0.979581
min of CH4 = 0
DILUPBiCG:  Solving for CO2, Initial residual = 0.0201848, Final residual = 3.86299e-09, No Iterations 2
max of CO2 = 5.65723e-05
min of CO2 = -1.29227e-06
max of N2 = 0.766992
min of N2 = 0
DILUPBiCG:  Solving for hs, Initial residual = 0.0241167, Final residual = 4.60501e-09, No Iterations 2
GAMG:  Solving for p_rgh, Initial residual = 0.0330649, Final residual = 0.000103315, No Iterations 5
diagonal:  Solving for rho, Initial residual = 0, Final residual = 0, No Iterations 0
time step continuity errors : sum local = 2.90764e-09, global = 1.52216e-10, cumulative = 1.5227e-09
GAMG:  Solving for p_rgh, Initial residual = 0.000234657, Final residual = 5.28471e-07, No Iterations 5
diagonal:  Solving for rho, Initial residual = 0, Final residual = 0, No Iterations 0
time step continuity errors : sum local = 8.20369e-12, global = 3.00094e-13, cumulative = 1.523e-09
DILUPBiCG:  Solving for k, Initial residual = 0.00726747, Final residual = 1.91408e-09, No Iterations 2
DILUPBiCG:  Solving for Ux, Initial residual = 2.07053e-06, Final residual = 1.7131e-11, No Iterations 1
DILUPBiCG:  Solving for Uy, Initial residual = 4.34968e-06, Final residual = 3.05111e-10, No Iterations 1
DILUPBiCG:  Solving for O2, Initial residual = 5.3348e-05, Final residual = 5.85873e-09, No Iterations 1
max of O2 = 0.23301
min of O2 = 0.00475594
DILUPBiCG:  Solving for H2O, Initial residual = 7.37899e-05, Final residual = 4.53403e-09, No Iterations 1
max of H2O = 4.63163e-05
min of H2O = -1.05799e-06
DILUPBiCG:  Solving for CH4, Initial residual = 5.30134e-05, Final residual = 4.43054e-09, No Iterations 1
max of CH4 = 0.979581
min of CH4 = 0
DILUPBiCG:  Solving for CO2, Initial residual = 7.13439e-05, Final residual = 4.49017e-09, No Iterations 1
max of CO2 = 5.65736e-05
min of CO2 = -1.29229e-06
max of N2 = 0.766992
min of N2 = 0
DILUPBiCG:  Solving for hs, Initial residual = 0.0039263, Final residual = 5.4649e-11, No Iterations 2
GAMG:  Solving for p_rgh, Initial residual = 0.0106938, Final residual = 4.05856e-05, No Iterations 4
diagonal:  Solving for rho, Initial residual = 0, Final residual = 0, No Iterations 0
time step continuity errors : sum local = 6.23633e-10, global = 1.6708e-10, cumulative = 1.69008e-09
GAMG:  Solving for p_rgh, Initial residual = 4.64138e-05, Final residual = 3.08894e-07, No Iterations 4
diagonal:  Solving for rho, Initial residual = 0, Final residual = 0, No Iterations 0
time step continuity errors : sum local = 4.08201e-12, global = 4.34142e-13, cumulative = 1.69051e-09
DILUPBiCG:  Solving for k, Initial residual = 0.000271985, Final residual = 1.27126e-11, No Iterations 2
ExecutionTime = 0.35 s  ClockTime = 1 s

Courant Number mean: 0.000103534 max: 0.0030574
deltaT = 0.00475978
faceSource patchSides output:
    sum(sides) for phi = 0.000698896
    sum(sides) for HRR_fu = -9.14918e-49
    sum(sides) for phiH = 0.0231881
    sum(sides) for phiHs = -3.49337e-06
    sum(sides) for phiHc = 0.0231906

faceSource patchOutlet output:
    sum(outlet) for phi = -1.72261e-06
    sum(outlet) for HRR_fu = -2.97145e-145
    sum(outlet) for phiH = -6.39687e-05
    sum(outlet) for phiHs = -6.80953e-06
    sum(outlet) for phiHc = -5.71592e-05

faceSource patchInlet output:
    sum(inlet) for phi = -0.0002
    sum(inlet) for HRR_fu = 10006.3
    sum(inlet) for phiH = 944.81
    sum(inlet) for phiHs = 0.00431754
    sum(inlet) for phiHc = 944.805

Calculating averages

Time = 0.0238882

diagonal:  Solving for rho, Initial residual = 0, Final residual = 0, No Iterations 0
DILUPBiCG:  Solving for Ux, Initial residual = 0.036131, Final residual = 1.57612e-07, No Iterations 1
DILUPBiCG:  Solving for Uy, Initial residual = 0.0428948, Final residual = 3.29383e-10, No Iterations 2
DILUPBiCG:  Solving for O2, Initial residual = 0.0520827, Final residual = 2.76603e-16, No Iterations 3
max of O2 = 0.23301
min of O2 = 0.00475042
DILUPBiCG:  Solving for H2O, Initial residual = 0.0865813, Final residual = 2.22877e-15, No Iterations 3
max of H2O = 6.63369e-05
min of H2O = -1.05793e-06
DILUPBiCG:  Solving for CH4, Initial residual = 0.0491422, Final residual = 2.65268e-16, No Iterations 3
max of CH4 = 0.979602
min of CH4 = 0
DILUPBiCG:  Solving for CO2, Initial residual = 0.0869703, Final residual = 2.38358e-15, No Iterations 3
max of CO2 = 8.1028e-05
min of CO2 = -1.29224e-06
max of N2 = 0.766992
min of N2 = 0
DILUPBiCG:  Solving for hs, Initial residual = 0.0879714, Final residual = 2.50218e-15, No Iterations 3
GAMG:  Solving for p_rgh, Initial residual = 0.151148, Final residual = 0.00150424, No Iterations 4
diagonal:  Solving for rho, Initial residual = 0, Final residual = 0, No Iterations 0
time step continuity errors : sum local = 2.55034e-08, global = -1.26117e-09, cumulative = 4.29347e-10
GAMG:  Solving for p_rgh, Initial residual = 0.00129558, Final residual = 4.24131e-07, No Iterations 7
diagonal:  Solving for rho, Initial residual = 0, Final residual = 0, No Iterations 0
time step continuity errors : sum local = 8.63088e-12, global = -3.11723e-13, cumulative = 4.29036e-10
DILUPBiCG:  Solving for k, Initial residual = 0.847514, Final residual = 4.24032e-13, No Iterations 3
DILUPBiCG:  Solving for Ux, Initial residual = 4.05752e-07, Final residual = 4.05752e-07, No Iterations 0
DILUPBiCG:  Solving for Uy, Initial residual = 6.59642e-07, Final residual = 6.59642e-07, No Iterations 0
DILUPBiCG:  Solving for O2, Initial residual = 0.0015093, Final residual = 9.9149e-10, No Iterations 2
max of O2 = 0.23301
min of O2 = 0.00475025
DILUPBiCG:  Solving for H2O, Initial residual = 0.0197478, Final residual = 1.51589e-15, No Iterations 3
max of H2O = 7.13391e-05
min of H2O = -1.05794e-06
DILUPBiCG:  Solving for CH4, Initial residual = 1.95502e-06, Final residual = 2.7274e-10, No Iterations 1
max of CH4 = 0.979602
min of CH4 = 0
DILUPBiCG:  Solving for CO2, Initial residual = 0.0200365, Final residual = 1.43461e-15, No Iterations 3
max of CO2 = 8.7138e-05
min of CO2 = -1.29225e-06
max of N2 = 0.766992
min of N2 = 0
DILUPBiCG:  Solving for hs, Initial residual = 0.0196286, Final residual = 1.94669e-15, No Iterations 3
GAMG:  Solving for p_rgh, Initial residual = 0.0559627, Final residual = 0.000217875, No Iterations 5
diagonal:  Solving for rho, Initial residual = 0, Final residual = 0, No Iterations 0
time step continuity errors : sum local = 4.58012e-09, global = 3.68997e-10, cumulative = 7.98033e-10
GAMG:  Solving for p_rgh, Initial residual = 0.000754016, Final residual = 5.33656e-07, No Iterations 6
diagonal:  Solving for rho, Initial residual = 0, Final residual = 0, No Iterations 0
time step continuity errors : sum local = 4.31413e-12, global = 2.05764e-13, cumulative = 7.98238e-10
DILUPBiCG:  Solving for k, Initial residual = 0.00819941, Final residual = 1.70569e-09, No Iterations 2
DILUPBiCG:  Solving for Ux, Initial residual = 3.16706e-06, Final residual = 3.46369e-11, No Iterations 1
DILUPBiCG:  Solving for Uy, Initial residual = 6.28001e-06, Final residual = 6.68412e-10, No Iterations 1
DILUPBiCG:  Solving for O2, Initial residual = 7.36027e-05, Final residual = 9.15101e-09, No Iterations 1
max of O2 = 0.23301
min of O2 = 0.0047502
DILUPBiCG:  Solving for H2O, Initial residual = 9.43402e-05, Final residual = 9.38571e-09, No Iterations 1
max of H2O = 7.13387e-05
min of H2O = -1.05794e-06
DILUPBiCG:  Solving for CH4, Initial residual = 7.38135e-05, Final residual = 7.81559e-09, No Iterations 1
max of CH4 = 0.979602
min of CH4 = 0
DILUPBiCG:  Solving for CO2, Initial residual = 9.46692e-05, Final residual = 9.42408e-09, No Iterations 1
max of CO2 = 8.71375e-05
min of CO2 = -1.29225e-06
max of N2 = 0.766992
min of N2 = 0
DILUPBiCG:  Solving for hs, Initial residual = 0.00265832, Final residual = 5.6817e-11, No Iterations 2
GAMG:  Solving for p_rgh, Initial residual = 0.0215237, Final residual = 9.46172e-05, No Iterations 4
diagonal:  Solving for rho, Initial residual = 0, Final residual = 0, No Iterations 0
time step continuity errors : sum local = 7.61688e-10, global = 2.06945e-10, cumulative = 1.00518e-09
GAMG:  Solving for p_rgh, Initial residual = 6.87835e-05, Final residual = 4.26097e-07, No Iterations 4
diagonal:  Solving for rho, Initial residual = 0, Final residual = 0, No Iterations 0
time step continuity errors : sum local = 4.63465e-12, global = 6.89826e-13, cumulative = 1.00587e-09
DILUPBiCG:  Solving for k, Initial residual = 0.000269724, Final residual = 8.65611e-12, No Iterations 2
ExecutionTime = 0.41 s  ClockTime = 1 s

Courant Number mean: 0.000132143 max: 0.00362061
deltaT = 0.00568103
faceSource patchSides output:
    sum(sides) for phi = 0.000697232
    sum(sides) for HRR_fu = -4.58122e-47
    sum(sides) for phiH = 0.0231358
    sum(sides) for phiHs = -6.23416e-07
    sum(sides) for phiHc = 0.0231353

faceSource patchOutlet output:
    sum(outlet) for phi = -2.05545e-06
    sum(outlet) for HRR_fu = -5.75924e-141
    sum(outlet) for phiH = -7.80942e-05
    sum(outlet) for phiHs = -9.89085e-06
    sum(outlet) for phiHc = -6.82033e-05

faceSource patchInlet output:
    sum(inlet) for phi = -0.0002
    sum(inlet) for HRR_fu = 10006.3
    sum(inlet) for phiH = 944.797
    sum(inlet) for phiHs = 0.00665071
    sum(inlet) for phiHc = 944.79

Calculating averages

Time = 0.0295692

diagonal:  Solving for rho, Initial residual = 0, Final residual = 0, No Iterations 0
DILUPBiCG:  Solving for Ux, Initial residual = 0.0447263, Final residual = 8.69134e-08, No Iterations 1
DILUPBiCG:  Solving for Uy, Initial residual = 0.0630065, Final residual = 6.91706e-10, No Iterations 2
DILUPBiCG:  Solving for O2, Initial residual = 0.050666, Final residual = 6.36586e-16, No Iterations 3
max of O2 = 0.23301
min of O2 = 0.00474339
DILUPBiCG:  Solving for H2O, Initial residual = 0.0834249, Final residual = 3.11544e-15, No Iterations 3
max of H2O = 0.000101072
min of H2O = -1.05792e-06
DILUPBiCG:  Solving for CH4, Initial residual = 0.0471733, Final residual = 6.0369e-16, No Iterations 3
max of CH4 = 0.979626
min of CH4 = 0
DILUPBiCG:  Solving for CO2, Initial residual = 0.0829888, Final residual = 2.83036e-15, No Iterations 3
max of CO2 = 0.000123455
min of CO2 = -1.29223e-06
max of N2 = 0.766992
min of N2 = 0
DILUPBiCG:  Solving for hs, Initial residual = 0.0830644, Final residual = 2.93739e-15, No Iterations 3
GAMG:  Solving for p_rgh, Initial residual = 0.255836, Final residual = 0.0021568, No Iterations 4
diagonal:  Solving for rho, Initial residual = 0, Final residual = 0, No Iterations 0
time step continuity errors : sum local = 2.84858e-08, global = -2.55832e-09, cumulative = -1.55245e-09
GAMG:  Solving for p_rgh, Initial residual = 0.0017091, Final residual = 3.66112e-07, No Iterations 7
diagonal:  Solving for rho, Initial residual = 0, Final residual = 0, No Iterations 0
time step continuity errors : sum local = 6.46232e-12, global = -4.74262e-13, cumulative = -1.55292e-09
DILUPBiCG:  Solving for k, Initial residual = 0.832921, Final residual = 9.93069e-09, No Iterations 2
DILUPBiCG:  Solving for Ux, Initial residual = 3.86446e-07, Final residual = 3.86446e-07, No Iterations 0
DILUPBiCG:  Solving for Uy, Initial residual = 1.05928e-06, Final residual = 1.159e-09, No Iterations 1
DILUPBiCG:  Solving for O2, Initial residual = 0.00170042, Final residual = 7.7075e-09, No Iterations 2
max of O2 = 0.23301
min of O2 = 0.00474314
DILUPBiCG:  Solving for H2O, Initial residual = 0.0166615, Final residual = 6.62504e-16, No Iterations 3
max of H2O = 0.00010818
min of H2O = -1.05792e-06
DILUPBiCG:  Solving for CH4, Initial residual = 4.03497e-06, Final residual = 5.70537e-10, No Iterations 1
max of CH4 = 0.979626
min of CH4 = 0
DILUPBiCG:  Solving for CO2, Initial residual = 0.0161249, Final residual = 5.31546e-16, No Iterations 3
max of CO2 = 0.000132138
min of CO2 = -1.29223e-06
max of N2 = 0.766992
min of N2 = 0
DILUPBiCG:  Solving for hs, Initial residual = 0.0167172, Final residual = 1.67463e-15, No Iterations 3
GAMG:  Solving for p_rgh, Initial residual = 0.0823016, Final residual = 0.000368946, No Iterations 5
diagonal:  Solving for rho, Initial residual = 0, Final residual = 0, No Iterations 0
time step continuity errors : sum local = 6.86414e-09, global = 7.67275e-10, cumulative = -7.85646e-10
GAMG:  Solving for p_rgh, Initial residual = 0.000217057, Final residual = 4.05122e-07, No Iterations 5
diagonal:  Solving for rho, Initial residual = 0, Final residual = 0, No Iterations 0
time step continuity errors : sum local = 1.84599e-11, global = 1.44157e-12, cumulative = -7.84204e-10
DILUPBiCG:  Solving for k, Initial residual = 0.00970513, Final residual = 2.11083e-09, No Iterations 2
DILUPBiCG:  Solving for Ux, Initial residual = 4.56033e-06, Final residual = 6.9612e-11, No Iterations 1
DILUPBiCG:  Solving for Uy, Initial residual = 8.71975e-06, Final residual = 8.56984e-10, No Iterations 1
DILUPBiCG:  Solving for O2, Initial residual = 0.000106014, Final residual = 1.05478e-12, No Iterations 2
max of O2 = 0.23301
min of O2 = 0.00474309
DILUPBiCG:  Solving for H2O, Initial residual = 0.000151016, Final residual = 1.27185e-11, No Iterations 2
max of H2O = 0.000108176
min of H2O = -1.05792e-06
DILUPBiCG:  Solving for CH4, Initial residual = 0.000106375, Final residual = 7.07689e-12, No Iterations 2
max of CH4 = 0.979626
min of CH4 = 0
DILUPBiCG:  Solving for CO2, Initial residual = 0.000143403, Final residual = 1.224e-11, No Iterations 2
max of CO2 = 0.000132132
min of CO2 = -1.29223e-06
max of N2 = 0.766992
min of N2 = 0
DILUPBiCG:  Solving for hs, Initial residual = 0.00161415, Final residual = 9.74518e-11, No Iterations 2
GAMG:  Solving for p_rgh, Initial residual = 0.00359462, Final residual = 2.05474e-05, No Iterations 4
diagonal:  Solving for rho, Initial residual = 0, Final residual = 0, No Iterations 0
time step continuity errors : sum local = 9.37483e-10, global = 2.79553e-10, cumulative = -5.04651e-10
GAMG:  Solving for p_rgh, Initial residual = 1.90317e-05, Final residual = 3.93402e-07, No Iterations 3
diagonal:  Solving for rho, Initial residual = 0, Final residual = 0, No Iterations 0
time step continuity errors : sum local = 1.91841e-11, global = -7.88299e-13, cumulative = -5.05439e-10
DILUPBiCG:  Solving for k, Initial residual = 0.000243664, Final residual = 8.88573e-12, No Iterations 2
ExecutionTime = 0.48 s  ClockTime = 1 s

Courant Number mean: 0.000177452 max: 0.00432138
deltaT = 0.00655503
faceSource patchSides output:
    sum(sides) for phi = 0.000779233
    sum(sides) for HRR_fu = -3.84866e-45
    sum(sides) for phiH = 0.02586
    sum(sides) for phiHs = 2.74678e-06
    sum(sides) for phiHc = 0.0258563

faceSource patchOutlet output:
    sum(outlet) for phi = -2.37214e-06
    sum(outlet) for HRR_fu = -4.89001e-136
    sum(outlet) for phiH = -7.51831e-05
    sum(outlet) for phiHs = 3.52847e-06
    sum(outlet) for phiHc = -7.87116e-05

faceSource patchInlet output:
    sum(inlet) for phi = -0.0002
    sum(inlet) for HRR_fu = 10006.3
    sum(inlet) for phiH = 944.783
    sum(inlet) for phiHs = 0.0100848
    sum(inlet) for phiHc = 944.772

Calculating averages

Time = 0.0361242

diagonal:  Solving for rho, Initial residual = 0, Final residual = 0, No Iterations 0
DILUPBiCG:  Solving for Ux, Initial residual = 0.057216, Final residual = 2.45378e-07, No Iterations 1
DILUPBiCG:  Solving for Uy, Initial residual = 0.0654154, Final residual = 1.18374e-09, No Iterations 2
DILUPBiCG:  Solving for O2, Initial residual = 0.0482266, Final residual = 1.1274e-15, No Iterations 3
max of O2 = 0.23301
min of O2 = 0.00473493
DILUPBiCG:  Solving for H2O, Initial residual = 0.0716434, Final residual = 1.98238e-15, No Iterations 3
max of H2O = 0.000150463
min of H2O = -1.05789e-06
DILUPBiCG:  Solving for CH4, Initial residual = 0.0442504, Final residual = 1.0598e-15, No Iterations 3
max of CH4 = 0.979654
min of CH4 = 0
DILUPBiCG:  Solving for CO2, Initial residual = 0.0699459, Final residual = 1.82993e-15, No Iterations 3
max of CO2 = 0.000183785
min of CO2 = -1.2922e-06
max of N2 = 0.766992
min of N2 = 0
DILUPBiCG:  Solving for hs, Initial residual = 0.0781045, Final residual = 4.64176e-15, No Iterations 3
GAMG:  Solving for p_rgh, Initial residual = 0.044383, Final residual = 0.000159424, No Iterations 5
diagonal:  Solving for rho, Initial residual = 0, Final residual = 0, No Iterations 0
time step continuity errors : sum local = 9.95876e-09, global = -1.36625e-09, cumulative = -1.87168e-09
GAMG:  Solving for p_rgh, Initial residual = 0.000421874, Final residual = 5.64096e-07, No Iterations 5
diagonal:  Solving for rho, Initial residual = 0, Final residual = 0, No Iterations 0
time step continuity errors : sum local = 2.09697e-11, global = -2.45004e-12, cumulative = -1.87413e-09
DILUPBiCG:  Solving for k, Initial residual = 0.812375, Final residual = 8.65133e-09, No Iterations 2
DILUPBiCG:  Solving for Ux, Initial residual = 4.5748e-07, Final residual = 4.5748e-07, No Iterations 0
DILUPBiCG:  Solving for Uy, Initial residual = 1.33558e-06, Final residual = 2.06822e-10, No Iterations 1
DILUPBiCG:  Solving for O2, Initial residual = 0.00180333, Final residual = 1.9492e-09, No Iterations 2
max of O2 = 0.23301
min of O2 = 0.00473459
DILUPBiCG:  Solving for H2O, Initial residual = 0.0110245, Final residual = 8.16047e-09, No Iterations 2
max of H2O = 0.000159905
min of H2O = -1.05789e-06
DILUPBiCG:  Solving for CH4, Initial residual = 7.85972e-06, Final residual = 1.55747e-09, No Iterations 1
max of CH4 = 0.979654
min of CH4 = 0
DILUPBiCG:  Solving for CO2, Initial residual = 0.0104771, Final residual = 7.76569e-09, No Iterations 2
max of CO2 = 0.000195318
min of CO2 = -1.29219e-06
max of N2 = 0.766992
min of N2 = 0
DILUPBiCG:  Solving for hs, Initial residual = 0.0150592, Final residual = 3.46118e-15, No Iterations 3
GAMG:  Solving for p_rgh, Initial residual = 0.0532554, Final residual = 0.000241568, No Iterations 5
diagonal:  Solving for rho, Initial residual = 0, Final residual = 0, No Iterations 0
time step continuity errors : sum local = 9.29383e-09, global = 1.25219e-09, cumulative = -6.21948e-10
GAMG:  Solving for p_rgh, Initial residual = 0.000198927, Final residual = 2.90713e-07, No Iterations 5
diagonal:  Solving for rho, Initial residual = 0, Final residual = 0, No Iterations 0
time step continuity errors : sum local = 2.14867e-11, global = 2.37266e-12, cumulative = -6.19576e-10
DILUPBiCG:  Solving for k, Initial residual = 0.0106733, Final residual = 2.57799e-09, No Iterations 2
DILUPBiCG:  Solving for Ux, Initial residual = 5.75758e-06, Final residual = 9.24972e-11, No Iterations 1
DILUPBiCG:  Solving for Uy, Initial residual = 1.2302e-05, Final residual = 9.72446e-10, No Iterations 1
DILUPBiCG:  Solving for O2, Initial residual = 0.000137343, Final residual = 2.15685e-11, No Iterations 2
max of O2 = 0.23301
min of O2 = 0.00473453
DILUPBiCG:  Solving for H2O, Initial residual = 0.000127476, Final residual = 3.10775e-11, No Iterations 2
max of H2O = 0.000159891
min of H2O = -1.05789e-06
DILUPBiCG:  Solving for CH4, Initial residual = 0.000136799, Final residual = 1.71666e-11, No Iterations 2
max of CH4 = 0.979655
min of CH4 = 0
DILUPBiCG:  Solving for CO2, Initial residual = 0.000121943, Final residual = 2.97414e-11, No Iterations 2
max of CO2 = 0.000195301
min of CO2 = -1.29219e-06
max of N2 = 0.766992
min of N2 = 0
DILUPBiCG:  Solving for hs, Initial residual = 0.00118365, Final residual = 2.48123e-10, No Iterations 2
GAMG:  Solving for p_rgh, Initial residual = 0.00245522, Final residual = 1.6264e-05, No Iterations 4
diagonal:  Solving for rho, Initial residual = 0, Final residual = 0, No Iterations 0
time step continuity errors : sum local = 1.2035e-09, global = 3.78937e-10, cumulative = -2.40639e-10
GAMG:  Solving for p_rgh, Initial residual = 1.55636e-05, Final residual = 3.2686e-07, No Iterations 3
diagonal:  Solving for rho, Initial residual = 0, Final residual = 0, No Iterations 0
time step continuity errors : sum local = 2.53913e-11, global = -1.40602e-12, cumulative = -2.42045e-10
DILUPBiCG:  Solving for k, Initial residual = 0.000249411, Final residual = 6.07581e-11, No Iterations 2
ExecutionTime = 0.53 s  ClockTime = 1 s

Courant Number mean: 0.000232124 max: 0.00498623
deltaT = 0.00780361
faceSource patchSides output:
    sum(sides) for phi = 0.000903736
    sum(sides) for HRR_fu = -2.68194e-43
    sum(sides) for phiH = 0.0299921
    sum(sides) for phiHs = 3.66165e-06
    sum(sides) for phiHc = 0.0299875

faceSource patchOutlet output:
    sum(outlet) for phi = -2.68983e-06
    sum(outlet) for HRR_fu = -4.49192e-132
    sum(outlet) for phiH = -7.89644e-05
    sum(outlet) for phiHs = 1.02889e-05
    sum(outlet) for phiHc = -8.92532e-05

faceSource patchInlet output:
    sum(inlet) for phi = -0.0002
    sum(inlet) for HRR_fu = 10006.3
    sum(inlet) for phiH = 944.767
    sum(inlet) for phiHs = 0.014905
    sum(inlet) for phiHc = 944.752

Calculating averages

Time = 0.0439278

diagonal:  Solving for rho, Initial residual = 0, Final residual = 0, No Iterations 0
DILUPBiCG:  Solving for Ux, Initial residual = 0.0706684, Final residual = 4.18504e-07, No Iterations 1
DILUPBiCG:  Solving for Uy, Initial residual = 0.0623587, Final residual = 2.13274e-09, No Iterations 2
DILUPBiCG:  Solving for O2, Initial residual = 0.0479659, Final residual = 2.77765e-15, No Iterations 3
max of O2 = 0.23301
min of O2 = 0.0047244
DILUPBiCG:  Solving for H2O, Initial residual = 0.0576577, Final residual = 3.49582e-15, No Iterations 3
max of H2O = 0.000221068
min of H2O = -1.05801e-06
DILUPBiCG:  Solving for CH4, Initial residual = 0.0433372, Final residual = 2.57526e-15, No Iterations 3
max of CH4 = 0.979688
min of CH4 = 0
DILUPBiCG:  Solving for CO2, Initial residual = 0.0547274, Final residual = 3.41975e-15, No Iterations 3
max of CO2 = 0.000270026
min of CO2 = -1.29235e-06
max of N2 = 0.766992
min of N2 = 0
DILUPBiCG:  Solving for hs, Initial residual = 0.0748282, Final residual = 5.142e-15, No Iterations 3
GAMG:  Solving for p_rgh, Initial residual = 0.0275894, Final residual = 0.000129708, No Iterations 5
diagonal:  Solving for rho, Initial residual = 0, Final residual = 0, No Iterations 0
time step continuity errors : sum local = 1.38534e-08, global = -2.01385e-09, cumulative = -2.2559e-09
GAMG:  Solving for p_rgh, Initial residual = 0.000804651, Final residual = 9.38268e-07, No Iterations 5
diagonal:  Solving for rho, Initial residual = 0, Final residual = 0, No Iterations 0
time step continuity errors : sum local = 2.96846e-11, global = -4.64545e-12, cumulative = -2.26054e-09
DILUPBiCG:  Solving for k, Initial residual = 0.795039, Final residual = 2.48912e-12, No Iterations 3
DILUPBiCG:  Solving for Ux, Initial residual = 5.81062e-07, Final residual = 5.81062e-07, No Iterations 0
DILUPBiCG:  Solving for Uy, Initial residual = 1.37909e-06, Final residual = 2.41371e-09, No Iterations 1
DILUPBiCG:  Solving for O2, Initial residual = 0.00203867, Final residual = 1.96987e-09, No Iterations 2
max of O2 = 0.23301
min of O2 = 0.00472392
DILUPBiCG:  Solving for H2O, Initial residual = 0.00725563, Final residual = 5.19459e-09, No Iterations 2
max of H2O = 0.000234409
min of H2O = -1.05803e-06
DILUPBiCG:  Solving for CH4, Initial residual = 1.55894e-05, Final residual = 3.6948e-09, No Iterations 1
max of CH4 = 0.979688
min of CH4 = 0
DILUPBiCG:  Solving for CO2, Initial residual = 0.00664412, Final residual = 4.75213e-09, No Iterations 2
max of CO2 = 0.000286321
min of CO2 = -1.29235e-06
max of N2 = 0.766992
min of N2 = 0
DILUPBiCG:  Solving for hs, Initial residual = 0.0136356, Final residual = 9.63444e-09, No Iterations 2
GAMG:  Solving for p_rgh, Initial residual = 0.0808468, Final residual = 0.000401201, No Iterations 5
diagonal:  Solving for rho, Initial residual = 0, Final residual = 0, No Iterations 0
time step continuity errors : sum local = 1.3449e-08, global = 2.08474e-09, cumulative = -1.75805e-10
GAMG:  Solving for p_rgh, Initial residual = 0.000262564, Final residual = 3.15938e-07, No Iterations 5
diagonal:  Solving for rho, Initial residual = 0, Final residual = 0, No Iterations 0
time step continuity errors : sum local = 2.91667e-11, global = 4.3447e-12, cumulative = -1.7146e-10
DILUPBiCG:  Solving for k, Initial residual = 0.0121862, Final residual = 3.67343e-09, No Iterations 2
DILUPBiCG:  Solving for Ux, Initial residual = 8.15916e-06, Final residual = 1.9625e-10, No Iterations 1
DILUPBiCG:  Solving for Uy, Initial residual = 1.74905e-05, Final residual = 1.81514e-09, No Iterations 1
DILUPBiCG:  Solving for O2, Initial residual = 0.000192628, Final residual = 3.82955e-11, No Iterations 2
max of O2 = 0.23301
min of O2 = 0.00472385
DILUPBiCG:  Solving for H2O, Initial residual = 0.000123701, Final residual = 1.08547e-10, No Iterations 2
max of H2O = 0.000234372
min of H2O = -1.05803e-06
DILUPBiCG:  Solving for CH4, Initial residual = 0.000190331, Final residual = 4.90059e-11, No Iterations 2
max of CH4 = 0.979688
min of CH4 = 0
DILUPBiCG:  Solving for CO2, Initial residual = 0.000112814, Final residual = 9.89641e-11, No Iterations 2
max of CO2 = 0.000286277
min of CO2 = -1.29235e-06
max of N2 = 0.766992
min of N2 = 0
DILUPBiCG:  Solving for hs, Initial residual = 0.00105814, Final residual = 2.45693e-09, No Iterations 2
GAMG:  Solving for p_rgh, Initial residual = 0.00262581, Final residual = 1.86201e-05, No Iterations 4
diagonal:  Solving for rho, Initial residual = 0, Final residual = 0, No Iterations 0
time step continuity errors : sum local = 1.72092e-09, global = 5.76775e-10, cumulative = 4.05315e-10
GAMG:  Solving for p_rgh, Initial residual = 1.82766e-05, Final residual = 3.95855e-07, No Iterations 3
diagonal:  Solving for rho, Initial residual = 0, Final residual = 0, No Iterations 0
time step continuity errors : sum local = 3.86162e-11, global = -2.49005e-12, cumulative = 4.02824e-10
DILUPBiCG:  Solving for k, Initial residual = 0.000307249, Final residual = 2.77792e-10, No Iterations 2
ExecutionTime = 0.59 s  ClockTime = 1 s

Courant Number mean: 0.000312488 max: 0.00598784
deltaT = 0.00918072
faceSource patchSides output:
    sum(sides) for phi = 0.00103358
    sum(sides) for HRR_fu = -2.22138e-41
    sum(sides) for phiH = 0.0342992
    sum(sides) for phiHs = 2.16439e-06
    sum(sides) for phiHc = 0.0342959

faceSource patchOutlet output:
    sum(outlet) for phi = -3.2174e-06
    sum(outlet) for HRR_fu = -9.97158e-128
    sum(outlet) for phiH = -9.83322e-05
    sum(outlet) for phiHs = 8.42654e-06
    sum(outlet) for phiHc = -0.000106759

faceSource patchInlet output:
    sum(inlet) for phi = -0.0002
    sum(inlet) for HRR_fu = 10006.3
    sum(inlet) for phiH = 944.749
    sum(inlet) for phiHs = 0.0218459
    sum(inlet) for phiHc = 944.727

Calculating averages

Time = 0.0531086

diagonal:  Solving for rho, Initial residual = 0, Final residual = 0, No Iterations 0
DILUPBiCG:  Solving for Ux, Initial residual = 0.066595, Final residual = 4.74474e-07, No Iterations 1
DILUPBiCG:  Solving for Uy, Initial residual = 0.0623489, Final residual = 3.79489e-09, No Iterations 2
DILUPBiCG:  Solving for O2, Initial residual = 0.047506, Final residual = 6.61452e-15, No Iterations 3
max of O2 = 0.23301
min of O2 = 0.00471134
DILUPBiCG:  Solving for H2O, Initial residual = 0.0366863, Final residual = 6.66414e-15, No Iterations 3
max of H2O = 0.000321335
min of H2O = -1.05805e-06
DILUPBiCG:  Solving for CH4, Initial residual = 0.0422241, Final residual = 6.06105e-15, No Iterations 3
max of CH4 = 0.979727
min of CH4 = 0
DILUPBiCG:  Solving for CO2, Initial residual = 0.0330701, Final residual = 6.1882e-15, No Iterations 3
max of CO2 = 0.000392498
min of CO2 = -1.29237e-06
max of N2 = 0.766992
min of N2 = 0
DILUPBiCG:  Solving for hs, Initial residual = 0.0725741, Final residual = 1.03887e-14, No Iterations 3
GAMG:  Solving for p_rgh, Initial residual = 0.0309772, Final residual = 0.00014684, No Iterations 5
diagonal:  Solving for rho, Initial residual = 0, Final residual = 0, No Iterations 0
time step continuity errors : sum local = 1.93311e-08, global = -3.15304e-09, cumulative = -2.75021e-09
GAMG:  Solving for p_rgh, Initial residual = 0.00208347, Final residual = 6.38759e-07, No Iterations 6
diagonal:  Solving for rho, Initial residual = 0, Final residual = 0, No Iterations 0
time step continuity errors : sum local = 1.27287e-11, global = -1.64433e-12, cumulative = -2.75186e-09
DILUPBiCG:  Solving for k, Initial residual = 0.772852, Final residual = 4.50917e-12, No Iterations 3
DILUPBiCG:  Solving for Ux, Initial residual = 6.93455e-07, Final residual = 6.93455e-07, No Iterations 0
DILUPBiCG:  Solving for Uy, Initial residual = 1.45288e-06, Final residual = 3.35649e-10, No Iterations 1
DILUPBiCG:  Solving for O2, Initial residual = 0.0022529, Final residual = 2.40911e-09, No Iterations 2
max of O2 = 0.23301
min of O2 = 0.00471067
DILUPBiCG:  Solving for H2O, Initial residual = 0.011272, Final residual = 8.94224e-09, No Iterations 2
max of H2O = 0.000339745
min of H2O = -1.05803e-06
DILUPBiCG:  Solving for CH4, Initial residual = 2.87861e-05, Final residual = 8.35434e-09, No Iterations 1
max of CH4 = 0.979727
min of CH4 = 0
DILUPBiCG:  Solving for CO2, Initial residual = 0.0110301, Final residual = 8.73743e-09, No Iterations 2
max of CO2 = 0.000414986
min of CO2 = -1.29235e-06
max of N2 = 0.766992
min of N2 = 0
DILUPBiCG:  Solving for hs, Initial residual = 0.0122402, Final residual = 9.81349e-09, No Iterations 2
GAMG:  Solving for p_rgh, Initial residual = 0.156987, Final residual = 0.00083437, No Iterations 5
diagonal:  Solving for rho, Initial residual = 0, Final residual = 0, No Iterations 0
time step continuity errors : sum local = 1.86612e-08, global = 3.18573e-09, cumulative = 4.33872e-10
GAMG:  Solving for p_rgh, Initial residual = 0.000341295, Final residual = 3.81131e-07, No Iterations 5
diagonal:  Solving for rho, Initial residual = 0, Final residual = 0, No Iterations 0
time step continuity errors : sum local = 4.3379e-11, global = 7.64667e-12, cumulative = 4.41519e-10
DILUPBiCG:  Solving for k, Initial residual = 0.0137549, Final residual = 5.19408e-09, No Iterations 2
DILUPBiCG:  Solving for Ux, Initial residual = 1.14786e-05, Final residual = 4.47809e-10, No Iterations 1
DILUPBiCG:  Solving for Uy, Initial residual = 2.35622e-05, Final residual = 3.75702e-09, No Iterations 1
DILUPBiCG:  Solving for O2, Initial residual = 0.000261718, Final residual = 8.10883e-11, No Iterations 2
max of O2 = 0.23301
min of O2 = 0.00471061
DILUPBiCG:  Solving for H2O, Initial residual = 0.00011624, Final residual = 5.01879e-09, No Iterations 2
max of H2O = 0.000339664
min of H2O = -1.05803e-06
DILUPBiCG:  Solving for CH4, Initial residual = 0.00025691, Final residual = 1.41974e-10, No Iterations 2
max of CH4 = 0.979728
min of CH4 = 0
DILUPBiCG:  Solving for CO2, Initial residual = 0.00012998, Final residual = 5.66061e-09, No Iterations 2
max of CO2 = 0.000414886
min of CO2 = -1.29235e-06
max of N2 = 0.766992
min of N2 = 0
DILUPBiCG:  Solving for hs, Initial residual = 0.00096122, Final residual = 1.34288e-09, No Iterations 2
GAMG:  Solving for p_rgh, Initial residual = 0.0028527, Final residual = 2.17866e-05, No Iterations 4
diagonal:  Solving for rho, Initial residual = 0, Final residual = 0, No Iterations 0
time step continuity errors : sum local = 2.48415e-09, global = 8.68983e-10, cumulative = 1.3105e-09
GAMG:  Solving for p_rgh, Initial residual = 2.25123e-05, Final residual = 4.85896e-07, No Iterations 3
diagonal:  Solving for rho, Initial residual = 0, Final residual = 0, No Iterations 0
time step continuity errors : sum local = 5.88228e-11, global = -3.15008e-12, cumulative = 1.30735e-09
DILUPBiCG:  Solving for k, Initial residual = 0.000387351, Final residual = 6.06576e-10, No Iterations 2
ExecutionTime = 0.65 s  ClockTime = 1 s

Courant Number mean: 0.000415143 max: 0.00786099
deltaT = 0.0104922
faceSource patchSides output:
    sum(sides) for phi = 0.00116752
    sum(sides) for HRR_fu = -1.74584e-39
    sum(sides) for phiH = 0.0387423
    sum(sides) for phiHs = 5.27057e-07
    sum(sides) for phiHc = 0.0387404

faceSource patchOutlet output:
    sum(outlet) for phi = -3.80926e-06
    sum(outlet) for HRR_fu = -1.98257e-123
    sum(outlet) for phiH = -0.000120469
    sum(outlet) for phiHs = 5.92846e-06
    sum(outlet) for phiHc = -0.000126398

faceSource patchInlet output:
    sum(inlet) for phi = -0.0002
    sum(inlet) for HRR_fu = 10006.3
    sum(inlet) for phiH = 944.73
    sum(inlet) for phiHs = 0.0316568
    sum(inlet) for phiHc = 944.698

Calculating averages

Time = 0.0636008

diagonal:  Solving for rho, Initial residual = 0, Final residual = 0, No Iterations 0
DILUPBiCG:  Solving for Ux, Initial residual = 0.0616406, Final residual = 5.45045e-07, No Iterations 1
DILUPBiCG:  Solving for Uy, Initial residual = 0.0626485, Final residual = 6.31886e-09, No Iterations 2
DILUPBiCG:  Solving for O2, Initial residual = 0.0461403, Final residual = 1.71207e-14, No Iterations 3
max of O2 = 0.23301
min of O2 = 0.00469551
DILUPBiCG:  Solving for H2O, Initial residual = 0.058562, Final residual = 2.88031e-14, No Iterations 3
max of H2O = 0.000458959
min of H2O = -1.05804e-06
DILUPBiCG:  Solving for CH4, Initial residual = 0.0403196, Final residual = 1.3968e-14, No Iterations 3
max of CH4 = 0.979773
min of CH4 = 0
DILUPBiCG:  Solving for CO2, Initial residual = 0.0564842, Final residual = 2.74065e-14, No Iterations 3
max of CO2 = 0.000560601
min of CO2 = -1.29235e-06
max of N2 = 0.766992
min of N2 = 0
DILUPBiCG:  Solving for hs, Initial residual = 0.0691303, Final residual = 2.9363e-14, No Iterations 3
GAMG:  Solving for p_rgh, Initial residual = 0.0302922, Final residual = 0.000165812, No Iterations 5
[...]
diagonal:  Solving for rho, Initial residual = 0, Final residual = 0, No Iterations 0
time step continuity errors : sum local = 1.07106e-07, global = 7.8492e-09, cumulative = 0.000405638
DILUPBiCG:  Solving for k, Initial residual = 0.00137842, Final residual = 2.96701e-09, No Iterations 8
DILUPBiCG:  Solving for Ux, Initial residual = 0.000356169, Final residual = 3.1256e-08, No Iterations 5
DILUPBiCG:  Solving for Uy, Initial residual = 0.000399021, Final residual = 5.96157e-08, No Iterations 5
DILUPBiCG:  Solving for O2, Initial residual = 0.00213402, Final residual = 1.81274e-09, No Iterations 7
max of O2 = 0.23301
min of O2 = 0.000634049
DILUPBiCG:  Solving for H2O, Initial residual = 0.00251679, Final residual = 8.64596e-13, No Iterations 1
max of H2O = 0.0968811
min of H2O = -1.05803e-06
DILUPBiCG:  Solving for CH4, Initial residual = 0.00169859, Final residual = 7.01525e-09, No Iterations 5
max of CH4 = 0.983326
min of CH4 = 0
DILUPBiCG:  Solving for CO2, Initial residual = 0.00243484, Final residual = 7.00781e-13, No Iterations 1
max of CO2 = 0.118337
min of CO2 = -1.29235e-06
max of N2 = 0.767111
min of N2 = 0
DILUPBiCG:  Solving for hs, Initial residual = 0.00270255, Final residual = 5.57104e-09, No Iterations 8
GAMG:  Solving for p_rgh, Initial residual = 0.0267019, Final residual = 0.0001288, No Iterations 3
diagonal:  Solving for rho, Initial residual = 0, Final residual = 0, No Iterations 0
time step continuity errors : sum local = 1.98944e-05, global = -2.10876e-06, cumulative = 0.000403529
GAMG:  Solving for p_rgh, Initial residual = 0.00156958, Final residual = 5.47625e-07, No Iterations 5
diagonal:  Solving for rho, Initial residual = 0, Final residual = 0, No Iterations 0
time step continuity errors : sum local = 8.57761e-08, global = -7.7364e-09, cumulative = 0.000403521
DILUPBiCG:  Solving for k, Initial residual = 0.00164359, Final residual = 5.9459e-09, No Iterations 7
ExecutionTime = 6.35 s  ClockTime = 14 s

Courant Number mean: 0.229726 max: 4.65766
deltaT = 0.0222222
faceSource patchSides output:
    sum(sides) for phi = -0.0995985
    sum(sides) for HRR_fu = -0.00841712
    sum(sides) for phiH = -20.691
    sum(sides) for phiHs = 168.046
    sum(sides) for phiHc = -188.731

faceSource patchOutlet output:
    sum(outlet) for phi = 0.0891007
    sum(outlet) for HRR_fu = -0.237907
    sum(outlet) for phiH = -1509.39
    sum(outlet) for phiHs = 13320.4
    sum(outlet) for phiHc = -14831.4

faceSource patchInlet output:
    sum(inlet) for phi = -0.0002
    sum(inlet) for HRR_fu = 10006.3
    sum(inlet) for phiH = 948.393
    sum(inlet) for phiHs = 4.87844
    sum(inlet) for phiHc = 943.515

Calculating averages

Time = 2.95556

diagonal:  Solving for rho, Initial residual = 0, Final residual = 0, No Iterations 0
DILUPBiCG:  Solving for Ux, Initial residual = 0.0236305, Final residual = 8.83956e-08, No Iterations 8
DILUPBiCG:  Solving for Uy, Initial residual = 0.0149194, Final residual = 3.99572e-07, No Iterations 8
DILUPBiCG:  Solving for O2, Initial residual = 0.00972083, Final residual = 1.79913e-09, No Iterations 7
max of O2 = 0.23301
min of O2 = 0.00063926
DILUPBiCG:  Solving for H2O, Initial residual = 0.000671662, Final residual = 3.63691e-13, No Iterations 1
max of H2O = 0.0969207
min of H2O = -1.05803e-06
DILUPBiCG:  Solving for CH4, Initial residual = 0.00111748, Final residual = 4.25104e-09, No Iterations 5
max of CH4 = 0.983323
min of CH4 = 0
DILUPBiCG:  Solving for CO2, Initial residual = 0.000672627, Final residual = 2.9932e-13, No Iterations 1
max of CO2 = 0.118385
min of CO2 = -1.29235e-06
max of N2 = 0.767111
min of N2 = 0
DILUPBiCG:  Solving for hs, Initial residual = 0.0110173, Final residual = 8.7028e-09, No Iterations 8
GAMG:  Solving for p_rgh, Initial residual = 0.0564051, Final residual = 0.000246815, No Iterations 3
diagonal:  Solving for rho, Initial residual = 0, Final residual = 0, No Iterations 0
time step continuity errors : sum local = 4.07251e-05, global = 5.76612e-06, cumulative = 0.000409287
GAMG:  Solving for p_rgh, Initial residual = 0.00798773, Final residual = 4.95331e-07, No Iterations 7
diagonal:  Solving for rho, Initial residual = 0, Final residual = 0, No Iterations 0
time step continuity errors : sum local = 7.98041e-08, global = -8.30715e-09, cumulative = 0.000409279
DILUPBiCG:  Solving for k, Initial residual = 0.00555002, Final residual = 7.16898e-09, No Iterations 8
DILUPBiCG:  Solving for Ux, Initial residual = 0.0009485, Final residual = 5.61415e-07, No Iterations 5
DILUPBiCG:  Solving for Uy, Initial residual = 0.00150402, Final residual = 2.98875e-07, No Iterations 6
DILUPBiCG:  Solving for O2, Initial residual = 0.00328129, Final residual = 2.55063e-09, No Iterations 8
max of O2 = 0.23301
min of O2 = 0.000641807
DILUPBiCG:  Solving for H2O, Initial residual = 0.0011475, Final residual = 5.76185e-11, No Iterations 1
max of H2O = 0.0968772
min of H2O = -1.05803e-06
DILUPBiCG:  Solving for CH4, Initial residual = 0.00240145, Final residual = 8.45765e-10, No Iterations 6
max of CH4 = 0.983318
min of CH4 = 0
DILUPBiCG:  Solving for CO2, Initial residual = 0.00116241, Final residual = 4.74003e-11, No Iterations 1
max of CO2 = 0.118332
min of CO2 = -1.29235e-06
max of N2 = 0.767109
min of N2 = 0
DILUPBiCG:  Solving for hs, Initial residual = 0.00338296, Final residual = 6.19673e-10, No Iterations 10
GAMG:  Solving for p_rgh, Initial residual = 0.0292377, Final residual = 0.000191901, No Iterations 3
diagonal:  Solving for rho, Initial residual = 0, Final residual = 0, No Iterations 0
time step continuity errors : sum local = 3.07404e-05, global = -2.38e-06, cumulative = 0.000406899
GAMG:  Solving for p_rgh, Initial residual = 0.00182853, Final residual = 7.54034e-07, No Iterations 6
diagonal:  Solving for rho, Initial residual = 0, Final residual = 0, No Iterations 0
time step continuity errors : sum local = 1.21963e-07, global = 6.49053e-09, cumulative = 0.000406906
DILUPBiCG:  Solving for k, Initial residual = 0.00144651, Final residual = 1.92406e-09, No Iterations 7
DILUPBiCG:  Solving for Ux, Initial residual = 0.000389844, Final residual = 1.9619e-08, No Iterations 6
DILUPBiCG:  Solving for Uy, Initial residual = 0.00041354, Final residual = 6.62683e-08, No Iterations 5
DILUPBiCG:  Solving for O2, Initial residual = 0.00199445, Final residual = 2.87143e-09, No Iterations 7
max of O2 = 0.23301
min of O2 = 0.000639988
DILUPBiCG:  Solving for H2O, Initial residual = 0.00252885, Final residual = 2.77704e-12, No Iterations 1
max of H2O = 0.0969338
min of H2O = -1.05803e-06
DILUPBiCG:  Solving for CH4, Initial residual = 0.0020638, Final residual = 4.31009e-10, No Iterations 6
max of CH4 = 0.983321
min of CH4 = 0
DILUPBiCG:  Solving for CO2, Initial residual = 0.00258382, Final residual = 2.24453e-12, No Iterations 1
max of CO2 = 0.118401
min of CO2 = -1.29235e-06
max of N2 = 0.767104
min of N2 = 0
DILUPBiCG:  Solving for hs, Initial residual = 0.00245802, Final residual = 9.47475e-10, No Iterations 9
GAMG:  Solving for p_rgh, Initial residual = 0.024061, Final residual = 8.03632e-05, No Iterations 3
diagonal:  Solving for rho, Initial residual = 0, Final residual = 0, No Iterations 0
time step continuity errors : sum local = 1.24041e-05, global = -2.71276e-06, cumulative = 0.000404193
GAMG:  Solving for p_rgh, Initial residual = 0.00144799, Final residual = 6.16823e-07, No Iterations 4
diagonal:  Solving for rho, Initial residual = 0, Final residual = 0, No Iterations 0
time step continuity errors : sum local = 9.60246e-08, global = -1.72448e-08, cumulative = 0.000404176
DILUPBiCG:  Solving for k, Initial residual = 0.00107356, Final residual = 1.03622e-09, No Iterations 8
ExecutionTime = 6.4 s  ClockTime = 14 s

Courant Number mean: 0.228961 max: 4.63603
deltaT = 0.0222222
faceSource patchSides output:
    sum(sides) for phi = -0.100078
    sum(sides) for HRR_fu = -0.0085053
    sum(sides) for phiH = -26.3363
    sum(sides) for phiHs = 194.616
    sum(sides) for phiHc = -220.92

faceSource patchOutlet output:
    sum(outlet) for phi = 0.0896278
    sum(outlet) for HRR_fu = -0.224971
    sum(outlet) for phiH = -1382.83
    sum(outlet) for phiHs = 13213.9
    sum(outlet) for phiHc = -14597.1

faceSource patchInlet output:
    sum(inlet) for phi = -0.0002
    sum(inlet) for HRR_fu = 10006.3
    sum(inlet) for phiH = 948.378
    sum(inlet) for phiHs = 4.8597
    sum(inlet) for phiHc = 943.518

Calculating averages

Time = 2.97778

diagonal:  Solving for rho, Initial residual = 0, Final residual = 0, No Iterations 0
DILUPBiCG:  Solving for Ux, Initial residual = 0.0236094, Final residual = 8.20037e-07, No Iterations 8
DILUPBiCG:  Solving for Uy, Initial residual = 0.0154495, Final residual = 1.31954e-07, No Iterations 8
DILUPBiCG:  Solving for O2, Initial residual = 0.00946341, Final residual = 5.55946e-09, No Iterations 8
max of O2 = 0.23301
min of O2 = 0.000645113
DILUPBiCG:  Solving for H2O, Initial residual = 0.00251229, Final residual = 9.78085e-12, No Iterations 1
max of H2O = 0.0968849
min of H2O = -1.05803e-06
DILUPBiCG:  Solving for CH4, Initial residual = 0.00187427, Final residual = 8.8695e-09, No Iterations 5
max of CH4 = 0.983319
min of CH4 = 0
DILUPBiCG:  Solving for CO2, Initial residual = 0.00251109, Final residual = 8.00487e-12, No Iterations 1
max of CO2 = 0.118341
min of CO2 = -1.29235e-06
max of N2 = 0.767106
min of N2 = 0
DILUPBiCG:  Solving for hs, Initial residual = 0.0107346, Final residual = 2.99071e-09, No Iterations 10
GAMG:  Solving for p_rgh, Initial residual = 0.0528526, Final residual = 0.000199949, No Iterations 3
diagonal:  Solving for rho, Initial residual = 0, Final residual = 0, No Iterations 0
time step continuity errors : sum local = 3.28326e-05, global = 9.36049e-06, cumulative = 0.000413536
GAMG:  Solving for p_rgh, Initial residual = 0.00785986, Final residual = 4.10226e-07, No Iterations 7
diagonal:  Solving for rho, Initial residual = 0, Final residual = 0, No Iterations 0
time step continuity errors : sum local = 6.66085e-08, global = -6.66023e-09, cumulative = 0.000413529
DILUPBiCG:  Solving for k, Initial residual = 0.0054829, Final residual = 7.09556e-09, No Iterations 8
DILUPBiCG:  Solving for Ux, Initial residual = 0.000856758, Final residual = 6.56633e-07, No Iterations 5
DILUPBiCG:  Solving for Uy, Initial residual = 0.00139142, Final residual = 6.26493e-07, No Iterations 6
DILUPBiCG:  Solving for O2, Initial residual = 0.00333601, Final residual = 1.32039e-09, No Iterations 7
max of O2 = 0.23301
min of O2 = 0.000647454
DILUPBiCG:  Solving for H2O, Initial residual = 0.000606578, Final residual = 8.4264e-12, No Iterations 1
max of H2O = 0.0969448
min of H2O = -1.05803e-06
DILUPBiCG:  Solving for CH4, Initial residual = 0.000925264, Final residual = 3.07419e-09, No Iterations 5
max of CH4 = 0.983316
min of CH4 = 0
DILUPBiCG:  Solving for CO2, Initial residual = 0.000606029, Final residual = 6.89948e-12, No Iterations 1
max of CO2 = 0.118414
min of CO2 = -1.29235e-06
max of N2 = 0.767107
min of N2 = 0
DILUPBiCG:  Solving for hs, Initial residual = 0.00338399, Final residual = 2.18995e-09, No Iterations 8
GAMG:  Solving for p_rgh, Initial residual = 0.0330631, Final residual = 0.000172308, No Iterations 3
diagonal:  Solving for rho, Initial residual = 0, Final residual = 0, No Iterations 0
time step continuity errors : sum local = 2.78681e-05, global = -1.62522e-06, cumulative = 0.000411904
GAMG:  Solving for p_rgh, Initial residual = 0.00199312, Final residual = 6.02653e-07, No Iterations 6
diagonal:  Solving for rho, Initial residual = 0, Final residual = 0, No Iterations 0
time step continuity errors : sum local = 9.76894e-08, global = 4.98088e-09, cumulative = 0.000411909
DILUPBiCG:  Solving for k, Initial residual = 0.0012988, Final residual = 5.83253e-10, No Iterations 8
DILUPBiCG:  Solving for Ux, Initial residual = 0.000440672, Final residual = 2.76475e-08, No Iterations 6
DILUPBiCG:  Solving for Uy, Initial residual = 0.000435604, Final residual = 6.97275e-08, No Iterations 5
DILUPBiCG:  Solving for O2, Initial residual = 0.00225787, Final residual = 7.07143e-09, No Iterations 6
max of O2 = 0.23301
min of O2 = 0.000646738
DILUPBiCG:  Solving for H2O, Initial residual = 0.00275231, Final residual = 9.2232e-14, No Iterations 1
max of H2O = 0.0970008
min of H2O = -1.05803e-06
DILUPBiCG:  Solving for CH4, Initial residual = 0.00104163, Final residual = 8.04415e-09, No Iterations 4
max of CH4 = 0.983315
min of CH4 = 0
DILUPBiCG:  Solving for CO2, Initial residual = 0.00274569, Final residual = 7.56023e-14, No Iterations 1
max of CO2 = 0.118483
min of CO2 = -1.29235e-06
max of N2 = 0.767101
min of N2 = 0
DILUPBiCG:  Solving for hs, Initial residual = 0.00282876, Final residual = 3.04609e-09, No Iterations 7
GAMG:  Solving for p_rgh, Initial residual = 0.027091, Final residual = 0.000119737, No Iterations 3
diagonal:  Solving for rho, Initial residual = 0, Final residual = 0, No Iterations 0
time step continuity errors : sum local = 1.84835e-05, global = -1.65892e-06, cumulative = 0.00041025
GAMG:  Solving for p_rgh, Initial residual = 0.00138783, Final residual = 8.07561e-07, No Iterations 5
diagonal:  Solving for rho, Initial residual = 0, Final residual = 0, No Iterations 0
time step continuity errors : sum local = 1.2604e-07, global = -1.33074e-08, cumulative = 0.000410237
DILUPBiCG:  Solving for k, Initial residual = 0.00118708, Final residual = 6.75384e-10, No Iterations 8
ExecutionTime = 6.46 s  ClockTime = 14 s

Courant Number mean: 0.228356 max: 4.65367
deltaT = 0.0222222
faceSource patchSides output:
    sum(sides) for phi = -0.100792
    sum(sides) for HRR_fu = -0.00581144
    sum(sides) for phiH = -21.1177
    sum(sides) for phiHs = 153.673
    sum(sides) for phiHc = -174.851

faceSource patchOutlet output:
    sum(outlet) for phi = 0.0905599
    sum(outlet) for HRR_fu = -0.228654
    sum(outlet) for phiH = -1386.14
    sum(outlet) for phiHs = 13139.9
    sum(outlet) for phiHc = -14527.3

faceSource patchInlet output:
    sum(inlet) for phi = -0.0002
    sum(inlet) for HRR_fu = 10006.3
    sum(inlet) for phiH = 948.363
    sum(inlet) for phiHs = 4.84122
    sum(inlet) for phiHc = 943.522

Calculating averages

Time = 3

diagonal:  Solving for rho, Initial residual = 0, Final residual = 0, No Iterations 0
DILUPBiCG:  Solving for Ux, Initial residual = 0.0237177, Final residual = 9.94453e-08, No Iterations 8
DILUPBiCG:  Solving for Uy, Initial residual = 0.0151106, Final residual = 1.73222e-07, No Iterations 8
DILUPBiCG:  Solving for O2, Initial residual = 0.00939116, Final residual = 5.54227e-09, No Iterations 7
max of O2 = 0.23301
min of O2 = 0.000652155
DILUPBiCG:  Solving for H2O, Initial residual = 0.012175, Final residual = 3.81614e-13, No Iterations 1
max of H2O = 0.0970711
min of H2O = -1.05803e-06
DILUPBiCG:  Solving for CH4, Initial residual = 0.00150946, Final residual = 2.53929e-09, No Iterations 5
max of CH4 = 0.983311
min of CH4 = 0
DILUPBiCG:  Solving for CO2, Initial residual = 0.0121745, Final residual = 3.10618e-13, No Iterations 1
max of CO2 = 0.118569
min of CO2 = -1.29235e-06
max of N2 = 0.767105
min of N2 = 0
DILUPBiCG:  Solving for hs, Initial residual = 0.0106446, Final residual = 5.28104e-10, No Iterations 9
GAMG:  Solving for p_rgh, Initial residual = 0.0546911, Final residual = 0.000179017, No Iterations 3
diagonal:  Solving for rho, Initial residual = 0, Final residual = 0, No Iterations 0
time step continuity errors : sum local = 2.96178e-05, global = 5.67406e-06, cumulative = 0.000415911
GAMG:  Solving for p_rgh, Initial residual = 0.0081371, Final residual = 3.9829e-07, No Iterations 7
diagonal:  Solving for rho, Initial residual = 0, Final residual = 0, No Iterations 0
time step continuity errors : sum local = 6.50881e-08, global = -5.27609e-09, cumulative = 0.000415906
DILUPBiCG:  Solving for k, Initial residual = 0.00528895, Final residual = 5.31056e-09, No Iterations 8
DILUPBiCG:  Solving for Ux, Initial residual = 0.00094414, Final residual = 8.84995e-07, No Iterations 5
DILUPBiCG:  Solving for Uy, Initial residual = 0.00148804, Final residual = 7.61111e-08, No Iterations 7
DILUPBiCG:  Solving for O2, Initial residual = 0.0035154, Final residual = 5.58822e-09, No Iterations 7
max of O2 = 0.23301
min of O2 = 0.000654437
DILUPBiCG:  Solving for H2O, Initial residual = 0.0023219, Final residual = 1.15857e-13, No Iterations 1
max of H2O = 0.0970994
min of H2O = -1.05804e-06
DILUPBiCG:  Solving for CH4, Initial residual = 0.00152493, Final residual = 7.08733e-09, No Iterations 4
max of CH4 = 0.983309
min of CH4 = 0
DILUPBiCG:  Solving for CO2, Initial residual = 0.00222524, Final residual = 8.96567e-14, No Iterations 1
max of CO2 = 0.118603
min of CO2 = -1.29235e-06
max of N2 = 0.767106
min of N2 = 0
DILUPBiCG:  Solving for hs, Initial residual = 0.00380002, Final residual = 9.52012e-10, No Iterations 9
GAMG:  Solving for p_rgh, Initial residual = 0.0368026, Final residual = 0.000159523, No Iterations 3
diagonal:  Solving for rho, Initial residual = 0, Final residual = 0, No Iterations 0
time step continuity errors : sum local = 2.59244e-05, global = -1.98223e-06, cumulative = 0.000413923
GAMG:  Solving for p_rgh, Initial residual = 0.00212347, Final residual = 5.96062e-07, No Iterations 6
diagonal:  Solving for rho, Initial residual = 0, Final residual = 0, No Iterations 0
time step continuity errors : sum local = 9.74595e-08, global = 2.27688e-09, cumulative = 0.000413926
DILUPBiCG:  Solving for k, Initial residual = 0.00130165, Final residual = 1.82961e-09, No Iterations 8
DILUPBiCG:  Solving for Ux, Initial residual = 0.000468573, Final residual = 9.88914e-09, No Iterations 6
DILUPBiCG:  Solving for Uy, Initial residual = 0.000473158, Final residual = 6.11367e-08, No Iterations 5
DILUPBiCG:  Solving for O2, Initial residual = 0.00222058, Final residual = 2.38404e-09, No Iterations 7
max of O2 = 0.23301
min of O2 = 0.000653442
DILUPBiCG:  Solving for H2O, Initial residual = 0.00445656, Final residual = 5.01751e-13, No Iterations 1
max of H2O = 0.0971782
min of H2O = -1.05804e-06
DILUPBiCG:  Solving for CH4, Initial residual = 0.00125109, Final residual = 6.59509e-09, No Iterations 5
max of CH4 = 0.98331
min of CH4 = 0
DILUPBiCG:  Solving for CO2, Initial residual = 0.00377167, Final residual = 4.22294e-13, No Iterations 1
max of CO2 = 0.118699
min of CO2 = -1.29235e-06
max of N2 = 0.767103
min of N2 = 0
DILUPBiCG:  Solving for hs, Initial residual = 0.00283126, Final residual = 4.28391e-09, No Iterations 8
GAMG:  Solving for p_rgh, Initial residual = 0.0299717, Final residual = 8.35479e-05, No Iterations 3
diagonal:  Solving for rho, Initial residual = 0, Final residual = 0, No Iterations 0
time step continuity errors : sum local = 1.30324e-05, global = -3.05542e-06, cumulative = 0.00041087
GAMG:  Solving for p_rgh, Initial residual = 0.00151558, Final residual = 6.41007e-07, No Iterations 4
diagonal:  Solving for rho, Initial residual = 0, Final residual = 0, No Iterations 0
time step continuity errors : sum local = 1.00263e-07, global = -4.08865e-08, cumulative = 0.000410829
DILUPBiCG:  Solving for k, Initial residual = 0.00130462, Final residual = 6.15089e-10, No Iterations 8
ExecutionTime = 6.53 s  ClockTime = 14 s

faceSource patchSides output:
    sum(sides) for phi = -0.101314
    sum(sides) for HRR_fu = -0.0041357
    sum(sides) for phiH = -13.7801
    sum(sides) for phiHs = 140.426
    sum(sides) for phiHc = -154.435

faceSource patchOutlet output:
    sum(outlet) for phi = 0.0909213
    sum(outlet) for HRR_fu = -0.2276
    sum(outlet) for phiH = -1312.48
    sum(outlet) for phiHs = 13038.1
    sum(outlet) for phiHc = -14350.7

faceSource patchInlet output:
    sum(inlet) for phi = -0.0002
    sum(inlet) for HRR_fu = 10006.3
    sum(inlet) for phiH = 948.349
    sum(inlet) for phiHs = 4.82288
    sum(inlet) for phiHc = 943.526

Calculating averages

End

Finalising parallel run
