/*---------------------------------------------------------------------------*\
| =========                 |                                                 |
| \\      /  F ield         | OpenFOAM: The Open Source CFD Toolbox           |
|  \\    /   O peration     | Version:  1.7.x                                 |
|   \\  /    A nd           | Web:      www.OpenFOAM.com                      |
|    \\/     M anipulation  |                                                 |
\*---------------------------------------------------------------------------*/
Build  : 1.7.x-868d5097761f
Exec   : fireFoam -parallel
Date   : Jun 29 2011
Time   : 16:33:05
Host   : wangyUbuntu
PID    : 13168
Case   : /home/wangy/trash/fireFoam/testBatteryFireFOAM/coFlowFlame2D
nProcs : 4
Slaves : 
3
(
wangyUbuntu.13169
wangyUbuntu.13170
wangyUbuntu.13171
)

Pstream initialized with:
    floatTransfer     : 0
    nProcsSimpleSum   : 0
    commsType         : nonBlocking
SigFpe : Enabling floating point exception trapping (FOAM_SIGFPE).

// * * * * * * * * * * * * * * * * * * * * * * * * * * * * * * * * * * * * * //
FireFOAM Build Version:  19aba322250b0b5c2dc61648283f3c48d302a841
FireFOAM Build Time Stamp:  Wed Jun 29 15:03:11 EDT 2011
****************************************************
Create time

Create mesh for time = 0


Reading g
Reading thermophysical properties

Selecting thermodynamics package hsPsiMixtureThermoNew<singleStepReactingMixture<gasThermoPhysics>>
Selecting chemistryReader foamChemistryReader
Fuel heat of combustion :5.00314e+07
Mole based specieStoichCoeffs: 5(-2 2 -1 1 7.52)
stoichiometric air-fuel ratio :17.1204
stoichiometric oxygen-fuel ratio :3.98918
Max products: 5(0 0.123944 0 0.151392 0.724664)
mass based specieStoichCoeffs: 5(-3.98918 2.2459 -1 2.74329 13.1312)
Creating component thermo properties:
    multi-component carrier - 5 species
    liquids - 1 components
    solids - 0 components
Reading field p_rgh

Reading field U

Reading/calculating face flux field phi

Creating turbulence model

Selecting turbulence model type LESModel
Selecting LES turbulence model oneEqEddy
--> FOAM Warning : 
    From function cubeRootVolDelta::calcDelta()
    in file cubeRootVolDelta/cubeRootVolDelta.C at line 52
    Case is 2D, LES is not strictly applicable

oneEqEddyCoeffs
{
    ce              1.048;
    Prt             1;
    ck              0.094;
}

Creating combustion model

Selecting combustion model eddyDissipationExplicitModel
stoichiometric mixture fraction is = 0.0551866
Creating field DpDt

Calculating field g.h

Selecting radiationModel fvDOM
Selecting absorptionEmissionModel greyMeanAbsorptionEmission
Selecting scatterModel constantScatter
--> FOAM Warning : 
    From function Field<Type>::Field(const word& keyword, const dictionary&, const label)
    in file /home/wangy/OpenFOAM/OpenFOAM-1.7.x/src/OpenFOAM/lnInclude/Field.C at line 262
    Reading "/home/wangy/trash/fireFoam/testBatteryFireFOAM/coFlowFlame2D/processor0/0/IDefault::boundaryField::base" from line 26 to line 30
    expected keyword 'uniform' or 'nonuniform', assuming deprecated Field format from Foam version 2.0.
--> FOAM Warning : 
    From function Field<Type>::Field(const word& keyword, const dictionary&, const label)
    in file /home/wangy/OpenFOAM/OpenFOAM-1.7.x/src/OpenFOAM/lnInclude/Field.C at line 262
    Reading "/home/wangy/trash/fireFoam/testBatteryFireFOAM/coFlowFlame2D/processor0/0/IDefault::boundaryField::sides" from line 34 to line 38
    expected keyword 'uniform' or 'nonuniform', assuming deprecated Field format from Foam version 2.0.
--> FOAM Warning : 
    From function Field<Type>::Field(const word& keyword, const dictionary&, const label)
    in file /home/wangy/OpenFOAM/OpenFOAM-1.7.x/src/OpenFOAM/lnInclude/Field.C at line 262
    Reading "/home/wangy/trash/fireFoam/testBatteryFireFOAM/coFlowFlame2D/processor0/0/IDefault::boundaryField::inlet" from line 42 to line 46
    expected keyword 'uniform' or 'nonuniform', assuming deprecated Field format from Foam version 2.0.
--> FOAM Warning : 
    From function Field<Type>::Field(const word& keyword, const dictionary&, const label)
    in file /home/wangy/OpenFOAM/OpenFOAM-1.7.x/src/OpenFOAM/lnInclude/Field.C at line 262
    Reading "/home/wangy/trash/fireFoam/testBatteryFireFOAM/coFlowFlame2D/processor0/0/IDefault::boundaryField::base" from line 26 to line 30
    expected keyword 'uniform' or 'nonuniform', assuming deprecated Field format from Foam version 2.0.
--> FOAM Warning : 
    From function Field<Type>::Field(const word& keyword, const dictionary&, const label)
    in file /home/wangy/OpenFOAM/OpenFOAM-1.7.x/src/OpenFOAM/lnInclude/Field.C at line 262
    Reading "/home/wangy/trash/fireFoam/testBatteryFireFOAM/coFlowFlame2D/processor0/0/IDefault::boundaryField::sides" from line 34 to line 38
    expected keyword 'uniform' or 'nonuniform', assuming deprecated Field format from Foam version 2.0.
--> FOAM Warning : 
    From function Field<Type>::Field(const word& keyword, const dictionary&, const label)
    in file /home/wangy/OpenFOAM/OpenFOAM-1.7.x/src/OpenFOAM/lnInclude/Field.C at line 262
    Reading "/home/wangy/trash/fireFoam/testBatteryFireFOAM/coFlowFlame2D/processor0/0/IDefault::boundaryField::inlet" from line 42 to line 46
    expected keyword 'uniform' or 'nonuniform', assuming deprecated Field format from Foam version 2.0.
--> FOAM Warning : 
    From function Field<Type>::Field(const word& keyword, const dictionary&, const label)
    in file /home/wangy/OpenFOAM/OpenFOAM-1.7.x/src/OpenFOAM/lnInclude/Field.C at line 262
    Reading "/home/wangy/trash/fireFoam/testBatteryFireFOAM/coFlowFlame2D/processor0/0/IDefault::boundaryField::base" from line 26 to line 30
    expected keyword 'uniform' or 'nonuniform', assuming deprecated Field format from Foam version 2.0.
--> FOAM Warning : 
    From function Field<Type>::Field(const word& keyword, const dictionary&, const label)
    in file /home/wangy/OpenFOAM/OpenFOAM-1.7.x/src/OpenFOAM/lnInclude/Field.C at line 262
    Reading "/home/wangy/trash/fireFoam/testBatteryFireFOAM/coFlowFlame2D/processor0/0/IDefault::boundaryField::sides" from line 34 to line 38
    expected keyword 'uniform' or 'nonuniform', assuming deprecated Field format from Foam version 2.0.
--> FOAM Warning : 
    From function Field<Type>::Field(const word& keyword, const dictionary&, const label)
    in file /home/wangy/OpenFOAM/OpenFOAM-1.7.x/src/OpenFOAM/lnInclude/Field.C at line 262
    Reading "/home/wangy/trash/fireFoam/testBatteryFireFOAM/coFlowFlame2D/processor0/0/IDefault::boundaryField::inlet" from line 42 to line 46
    expected keyword 'uniform' or 'nonuniform', assuming deprecated Field format from Foam version 2.0.
--> FOAM Warning : 
    From function Field<Type>::Field(const word& keyword, const dictionary&, const label)
    in file /home/wangy/OpenFOAM/OpenFOAM-1.7.x/src/OpenFOAM/lnInclude/Field.C at line 262
    Reading "/home/wangy/trash/fireFoam/testBatteryFireFOAM/coFlowFlame2D/processor0/0/IDefault::boundaryField::base" from line 26 to line 30
    expected keyword 'uniform' or 'nonuniform', assuming deprecated Field format from Foam version 2.0.
--> FOAM Warning : 
    From function Field<Type>::Field(const word& keyword, const dictionary&, const label)
    in file /home/wangy/OpenFOAM/OpenFOAM-1.7.x/src/OpenFOAM/lnInclude/Field.C at line 262
    Reading "/home/wangy/trash/fireFoam/testBatteryFireFOAM/coFlowFlame2D/processor0/0/IDefault::boundaryField::sides" from line 34 to line 38
    expected keyword 'uniform' or 'nonuniform', assuming deprecated Field format from Foam version 2.0.
--> FOAM Warning : 
    From function Field<Type>::Field(const word& keyword, const dictionary&, const label)
    in file /home/wangy/OpenFOAM/OpenFOAM-1.7.x/src/OpenFOAM/lnInclude/Field.C at line 262
    Reading "/home/wangy/trash/fireFoam/testBatteryFireFOAM/coFlowFlame2D/processor0/0/IDefault::boundaryField::inlet" from line 42 to line 46
    expected keyword 'uniform' or 'nonuniform', assuming deprecated Field format from Foam version 2.0.
--> FOAM Warning : 
    From function Field<Type>::Field(const word& keyword, const dictionary&, const label)
    in file /home/wangy/OpenFOAM/OpenFOAM-1.7.x/src/OpenFOAM/lnInclude/Field.C at line 262
    Reading "/home/wangy/trash/fireFoam/testBatteryFireFOAM/coFlowFlame2D/processor0/0/IDefault::boundaryField::base" from line 26 to line 30
    expected keyword 'uniform' or 'nonuniform', assuming deprecated Field format from Foam version 2.0.
--> FOAM Warning : 
    From function Field<Type>::Field(const word& keyword, const dictionary&, const label)
    in file /home/wangy/OpenFOAM/OpenFOAM-1.7.x/src/OpenFOAM/lnInclude/Field.C at line 262
    Reading "/home/wangy/trash/fireFoam/testBatteryFireFOAM/coFlowFlame2D/processor0/0/IDefault::boundaryField::sides" from line 34 to line 38
    expected keyword 'uniform' or 'nonuniform', assuming deprecated Field format from Foam version 2.0.
--> FOAM Warning : 
    From function Field<Type>::Field(const word& keyword, const dictionary&, const label)
    in file /home/wangy/OpenFOAM/OpenFOAM-1.7.x/src/OpenFOAM/lnInclude/Field.C at line 262
    Reading "/home/wangy/trash/fireFoam/testBatteryFireFOAM/coFlowFlame2D/processor0/0/IDefault::boundaryField::inlet" from line 42 to line 46
    expected keyword 'uniform' or 'nonuniform', assuming deprecated Field format from Foam version 2.0.
--> FOAM Warning : 
    From function Field<Type>::Field(const word& keyword, const dictionary&, const label)
    in file /home/wangy/OpenFOAM/OpenFOAM-1.7.x/src/OpenFOAM/lnInclude/Field.C at line 262
    Reading "/home/wangy/trash/fireFoam/testBatteryFireFOAM/coFlowFlame2D/processor0/0/IDefault::boundaryField::base" from line 26 to line 30
    expected keyword 'uniform' or 'nonuniform', assuming deprecated Field format from Foam version 2.0.
--> FOAM Warning : 
    From function Field<Type>::Field(const word& keyword, const dictionary&, const label)
    in file /home/wangy/OpenFOAM/OpenFOAM-1.7.x/src/OpenFOAM/lnInclude/Field.C at line 262
    Reading "/home/wangy/trash/fireFoam/testBatteryFireFOAM/coFlowFlame2D/processor0/0/IDefault::boundaryField::sides" from line 34 to line 38
    expected keyword 'uniform' or 'nonuniform', assuming deprecated Field format from Foam version 2.0.
--> FOAM Warning : 
    From function Field<Type>::Field(const word& keyword, const dictionary&, const label)
    in file /home/wangy/OpenFOAM/OpenFOAM-1.7.x/src/OpenFOAM/lnInclude/Field.C at line 262
    Reading "/home/wangy/trash/fireFoam/testBatteryFireFOAM/coFlowFlame2D/processor0/0/IDefault::boundaryField::inlet" from line 42 to line 46
    expected keyword 'uniform' or 'nonuniform', assuming deprecated Field format from Foam version 2.0.
--> FOAM Warning : 
    From function Field<Type>::Field(const word& keyword, const dictionary&, const label)
    in file /home/wangy/OpenFOAM/OpenFOAM-1.7.x/src/OpenFOAM/lnInclude/Field.C at line 262
    Reading "/home/wangy/trash/fireFoam/testBatteryFireFOAM/coFlowFlame2D/processor0/0/IDefault::boundaryField::base" from line 26 to line 30
    expected keyword 'uniform' or 'nonuniform', assuming deprecated Field format from Foam version 2.0.
--> FOAM Warning : 
    From function Field<Type>::Field(const word& keyword, const dictionary&, const label)
    in file /home/wangy/OpenFOAM/OpenFOAM-1.7.x/src/OpenFOAM/lnInclude/Field.C at line 262
    Reading "/home/wangy/trash/fireFoam/testBatteryFireFOAM/coFlowFlame2D/processor0/0/IDefault::boundaryField::sides" from line 34 to line 38
    expected keyword 'uniform' or 'nonuniform', assuming deprecated Field format from Foam version 2.0.
--> FOAM Warning : 
    From function Field<Type>::Field(const word& keyword, const dictionary&, const label)
    in file /home/wangy/OpenFOAM/OpenFOAM-1.7.x/src/OpenFOAM/lnInclude/Field.C at line 262
    Reading "/home/wangy/trash/fireFoam/testBatteryFireFOAM/coFlowFlame2D/processor0/0/IDefault::boundaryField::inlet" from line 42 to line 46
    expected keyword 'uniform' or 'nonuniform', assuming deprecated Field format from Foam version 2.0.
--> FOAM Warning : 
    From function Field<Type>::Field(const word& keyword, const dictionary&, const label)
    in file /home/wangy/OpenFOAM/OpenFOAM-1.7.x/src/OpenFOAM/lnInclude/Field.C at line 262
    Reading "/home/wangy/trash/fireFoam/testBatteryFireFOAM/coFlowFlame2D/processor0/0/IDefault::boundaryField::base" from line 26 to line 30
    expected keyword 'uniform' or 'nonuniform', assuming deprecated Field format from Foam version 2.0.
--> FOAM Warning : 
    From function Field<Type>::Field(const word& keyword, const dictionary&, const label)
    in file /home/wangy/OpenFOAM/OpenFOAM-1.7.x/src/OpenFOAM/lnInclude/Field.C at line 262
    Reading "/home/wangy/trash/fireFoam/testBatteryFireFOAM/coFlowFlame2D/processor0/0/IDefault::boundaryField::sides" from line 34 to line 38
    expected keyword 'uniform' or 'nonuniform', assuming deprecated Field format from Foam version 2.0.
--> FOAM Warning : 
    From function Field<Type>::Field(const word& keyword, const dictionary&, const label)
    in file /home/wangy/OpenFOAM/OpenFOAM-1.7.x/src/OpenFOAM/lnInclude/Field.C at line 262
    Reading "/home/wangy/trash/fireFoam/testBatteryFireFOAM/coFlowFlame2D/processor0/0/IDefault::boundaryField::inlet" from line 42 to line 46
    expected keyword 'uniform' or 'nonuniform', assuming deprecated Field format from Foam version 2.0.
--> FOAM Warning : 
    From function Field<Type>::Field(const word& keyword, const dictionary&, const label)
    in file /home/wangy/OpenFOAM/OpenFOAM-1.7.x/src/OpenFOAM/lnInclude/Field.C at line 262
    Reading "/home/wangy/trash/fireFoam/testBatteryFireFOAM/coFlowFlame2D/processor0/0/IDefault::boundaryField::base" from line 26 to line 30
    expected keyword 'uniform' or 'nonuniform', assuming deprecated Field format from Foam version 2.0.
--> FOAM Warning : 
    From function Field<Type>::Field(const word& keyword, const dictionary&, const label)
    in file /home/wangy/OpenFOAM/OpenFOAM-1.7.x/src/OpenFOAM/lnInclude/Field.C at line 262
    Reading "/home/wangy/trash/fireFoam/testBatteryFireFOAM/coFlowFlame2D/processor0/0/IDefault::boundaryField::sides" from line 34 to line 38
    expected keyword 'uniform' or 'nonuniform', assuming deprecated Field format from Foam version 2.0.
--> FOAM Warning : 
    From function Field<Type>::Field(const word& keyword, const dictionary&, const label)
    in file /home/wangy/OpenFOAM/OpenFOAM-1.7.x/src/OpenFOAM/lnInclude/Field.C at line 262
    Reading "/home/wangy/trash/fireFoam/testBatteryFireFOAM/coFlowFlame2D/processor0/0/IDefault::boundaryField::inlet" from line 42 to line 46
    expected keyword 'uniform' or 'nonuniform', assuming deprecated Field format from Foam version 2.0.
--> FOAM Warning : 
    From function Field<Type>::Field(const word& keyword, const dictionary&, const label)
    in file /home/wangy/OpenFOAM/OpenFOAM-1.7.x/src/OpenFOAM/lnInclude/Field.C at line 262
    Reading "/home/wangy/trash/fireFoam/testBatteryFireFOAM/coFlowFlame2D/processor0/0/IDefault::boundaryField::base" from line 26 to line 30
    expected keyword 'uniform' or 'nonuniform', assuming deprecated Field format from Foam version 2.0.
--> FOAM Warning : 
    From function Field<Type>::Field(const word& keyword, const dictionary&, const label)
    in file /home/wangy/OpenFOAM/OpenFOAM-1.7.x/src/OpenFOAM/lnInclude/Field.C at line 262
    Reading "/home/wangy/trash/fireFoam/testBatteryFireFOAM/coFlowFlame2D/processor0/0/IDefault::boundaryField::sides" from line 34 to line 38
    expected keyword 'uniform' or 'nonuniform', assuming deprecated Field format from Foam version 2.0.
--> FOAM Warning : 
    From function Field<Type>::Field(const word& keyword, const dictionary&, const label)
    in file /home/wangy/OpenFOAM/OpenFOAM-1.7.x/src/OpenFOAM/lnInclude/Field.C at line 262
    Reading "/home/wangy/trash/fireFoam/testBatteryFireFOAM/coFlowFlame2D/processor0/0/IDefault::boundaryField::inlet" from line 42 to line 46
    expected keyword 'uniform' or 'nonuniform', assuming deprecated Field format from Foam version 2.0.
--> FOAM Warning : 
    From function Field<Type>::Field(const word& keyword, const dictionary&, const label)
    in file /home/wangy/OpenFOAM/OpenFOAM-1.7.x/src/OpenFOAM/lnInclude/Field.C at line 262
    Reading "/home/wangy/trash/fireFoam/testBatteryFireFOAM/coFlowFlame2D/processor0/0/IDefault::boundaryField::base" from line 26 to line 30
    expected keyword 'uniform' or 'nonuniform', assuming deprecated Field format from Foam version 2.0.
--> FOAM Warning : 
    From function Field<Type>::Field(const word& keyword, const dictionary&, const label)
    in file /home/wangy/OpenFOAM/OpenFOAM-1.7.x/src/OpenFOAM/lnInclude/Field.C at line 262
    Reading "/home/wangy/trash/fireFoam/testBatteryFireFOAM/coFlowFlame2D/processor0/0/IDefault::boundaryField::sides" from line 34 to line 38
    expected keyword 'uniform' or 'nonuniform', assuming deprecated Field format from Foam version 2.0.
--> FOAM Warning : 
    From function Field<Type>::Field(const word& keyword, const dictionary&, const label)
    in file /home/wangy/OpenFOAM/OpenFOAM-1.7.x/src/OpenFOAM/lnInclude/Field.C at line 262
    Reading "/home/wangy/trash/fireFoam/testBatteryFireFOAM/coFlowFlame2D/processor0/0/IDefault::boundaryField::inlet" from line 42 to line 46
    expected keyword 'uniform' or 'nonuniform', assuming deprecated Field format from Foam version 2.0.
--> FOAM Warning : 
    From function Field<Type>::Field(const word& keyword, const dictionary&, const label)
    in file /home/wangy/OpenFOAM/OpenFOAM-1.7.x/src/OpenFOAM/lnInclude/Field.C at line 262
    Reading "/home/wangy/trash/fireFoam/testBatteryFireFOAM/coFlowFlame2D/processor0/0/IDefault::boundaryField::base" from line 26 to line 30
    expected keyword 'uniform' or 'nonuniform', assuming deprecated Field format from Foam version 2.0.
--> FOAM Warning : 
    From function Field<Type>::Field(const word& keyword, const dictionary&, const label)
    in file /home/wangy/OpenFOAM/OpenFOAM-1.7.x/src/OpenFOAM/lnInclude/Field.C at line 262
    Reading "/home/wangy/trash/fireFoam/testBatteryFireFOAM/coFlowFlame2D/processor0/0/IDefault::boundaryField::sides" from line 34 to line 38
    expected keyword 'uniform' or 'nonuniform', assuming deprecated Field format from Foam version 2.0.
--> FOAM Warning : 
    From function Field<Type>::Field(const word& keyword, const dictionary&, const label)
    in file /home/wangy/OpenFOAM/OpenFOAM-1.7.x/src/OpenFOAM/lnInclude/Field.C at line 262
    Reading "/home/wangy/trash/fireFoam/testBatteryFireFOAM/coFlowFlame2D/processor0/0/IDefault::boundaryField::inlet" from line 42 to line 46
    expected keyword 'uniform' or 'nonuniform', assuming deprecated Field format from Foam version 2.0.
--> FOAM Warning : 
    From function Field<Type>::Field(const word& keyword, const dictionary&, const label)
    in file /home/wangy/OpenFOAM/OpenFOAM-1.7.x/src/OpenFOAM/lnInclude/Field.C at line 262
    Reading "/home/wangy/trash/fireFoam/testBatteryFireFOAM/coFlowFlame2D/processor0/0/IDefault::boundaryField::base" from line 26 to line 30
    expected keyword 'uniform' or 'nonuniform', assuming deprecated Field format from Foam version 2.0.
--> FOAM Warning : 
    From function Field<Type>::Field(const word& keyword, const dictionary&, const label)
    in file /home/wangy/OpenFOAM/OpenFOAM-1.7.x/src/OpenFOAM/lnInclude/Field.C at line 262
    Reading "/home/wangy/trash/fireFoam/testBatteryFireFOAM/coFlowFlame2D/processor0/0/IDefault::boundaryField::sides" from line 34 to line 38
    expected keyword 'uniform' or 'nonuniform', assuming deprecated Field format from Foam version 2.0.
--> FOAM Warning : 
    From function Field<Type>::Field(const word& keyword, const dictionary&, const label)
    in file /home/wangy/OpenFOAM/OpenFOAM-1.7.x/src/OpenFOAM/lnInclude/Field.C at line 262
    Reading "/home/wangy/trash/fireFoam/testBatteryFireFOAM/coFlowFlame2D/processor0/0/IDefault::boundaryField::inlet" from line 42 to line 46
    expected keyword 'uniform' or 'nonuniform', assuming deprecated Field format from Foam version 2.0.
--> FOAM Warning : 
    From function Field<Type>::Field(const word& keyword, const dictionary&, const label)
    in file /home/wangy/OpenFOAM/OpenFOAM-1.7.x/src/OpenFOAM/lnInclude/Field.C at line 262
    Reading "/home/wangy/trash/fireFoam/testBatteryFireFOAM/coFlowFlame2D/processor0/0/IDefault::boundaryField::base" from line 26 to line 30
    expected keyword 'uniform' or 'nonuniform', assuming deprecated Field format from Foam version 2.0.
--> FOAM Warning : 
    From function Field<Type>::Field(const word& keyword, const dictionary&, const label)
    in file /home/wangy/OpenFOAM/OpenFOAM-1.7.x/src/OpenFOAM/lnInclude/Field.C at line 262
    Reading "/home/wangy/trash/fireFoam/testBatteryFireFOAM/coFlowFlame2D/processor0/0/IDefault::boundaryField::sides" from line 34 to line 38
    expected keyword 'uniform' or 'nonuniform', assuming deprecated Field format from Foam version 2.0.
--> FOAM Warning : 
    From function Field<Type>::Field(const word& keyword, const dictionary&, const label)
    in file /home/wangy/OpenFOAM/OpenFOAM-1.7.x/src/OpenFOAM/lnInclude/Field.C at line 262
    Reading "/home/wangy/trash/fireFoam/testBatteryFireFOAM/coFlowFlame2D/processor0/0/IDefault::boundaryField::inlet" from line 42 to line 46
    expected keyword 'uniform' or 'nonuniform', assuming deprecated Field format from Foam version 2.0.
--> FOAM Warning : 
    From function Field<Type>::Field(const word& keyword, const dictionary&, const label)
    in file /home/wangy/OpenFOAM/OpenFOAM-1.7.x/src/OpenFOAM/lnInclude/Field.C at line 262
    Reading "/home/wangy/trash/fireFoam/testBatteryFireFOAM/coFlowFlame2D/processor0/0/IDefault::boundaryField::base" from line 26 to line 30
    expected keyword 'uniform' or 'nonuniform', assuming deprecated Field format from Foam version 2.0.
--> FOAM Warning : 
    From function Field<Type>::Field(const word& keyword, const dictionary&, const label)
    in file /home/wangy/OpenFOAM/OpenFOAM-1.7.x/src/OpenFOAM/lnInclude/Field.C at line 262
    Reading "/home/wangy/trash/fireFoam/testBatteryFireFOAM/coFlowFlame2D/processor0/0/IDefault::boundaryField::sides" from line 34 to line 38
    expected keyword 'uniform' or 'nonuniform', assuming deprecated Field format from Foam version 2.0.
--> FOAM Warning : 
    From function Field<Type>::Field(const word& keyword, const dictionary&, const label)
    in file /home/wangy/OpenFOAM/OpenFOAM-1.7.x/src/OpenFOAM/lnInclude/Field.C at line 262
    Reading "/home/wangy/trash/fireFoam/testBatteryFireFOAM/coFlowFlame2D/processor0/0/IDefault::boundaryField::inlet" from line 42 to line 46
    expected keyword 'uniform' or 'nonuniform', assuming deprecated Field format from Foam version 2.0.
--> FOAM Warning : 
    From function Field<Type>::Field(const word& keyword, const dictionary&, const label)
    in file /home/wangy/OpenFOAM/OpenFOAM-1.7.x/src/OpenFOAM/lnInclude/Field.C at line 262
    Reading "/home/wangy/trash/fireFoam/testBatteryFireFOAM/coFlowFlame2D/processor0/0/IDefault::boundaryField::base" from line 26 to line 30
    expected keyword 'uniform' or 'nonuniform', assuming deprecated Field format from Foam version 2.0.
--> FOAM Warning : 
    From function Field<Type>::Field(const word& keyword, const dictionary&, const label)
    in file /home/wangy/OpenFOAM/OpenFOAM-1.7.x/src/OpenFOAM/lnInclude/Field.C at line 262
    Reading "/home/wangy/trash/fireFoam/testBatteryFireFOAM/coFlowFlame2D/processor0/0/IDefault::boundaryField::sides" from line 34 to line 38
    expected keyword 'uniform' or 'nonuniform', assuming deprecated Field format from Foam version 2.0.
--> FOAM Warning : 
    From function Field<Type>::Field(const word& keyword, const dictionary&, const label)
    in file /home/wangy/OpenFOAM/OpenFOAM-1.7.x/src/OpenFOAM/lnInclude/Field.C at line 262
    Reading "/home/wangy/trash/fireFoam/testBatteryFireFOAM/coFlowFlame2D/processor0/0/IDefault::boundaryField::inlet" from line 42 to line 46
    expected keyword 'uniform' or 'nonuniform', assuming deprecated Field format from Foam version 2.0.
fvDOM : Allocated 16 rays with average orientation:
	I0	(0.11957 0.601118 2.94467e-33)
	I1	(0.340506 0.509603 2.94467e-33)
	I2	(0.509603 0.340506 2.94467e-33)
	I3	(0.601118 0.11957 2.94467e-33)
	I4	(0.601118 -0.11957 2.94467e-33)
	I5	(0.509603 -0.340506 2.94467e-33)
	I6	(0.340506 -0.509603 2.94467e-33)
	I7	(0.11957 -0.601118 2.94467e-33)
	I8	(-0.11957 -0.601118 2.94467e-33)
	I9	(-0.340506 -0.509603 2.94467e-33)
	I10	(-0.509603 -0.340506 2.94467e-33)
	I11	(-0.601118 -0.11957 2.94467e-33)
	I12	(-0.601118 0.11957 2.94467e-33)
	I13	(-0.509603 0.340506 2.94467e-33)
	I14	(-0.340506 0.509603 2.94467e-33)
	I15	(-0.11957 0.601118 2.94467e-33)

Creating pyrolysis model

Selecting pyrolysisModel none

Constructing reacting cloud
Constructing cloud functions
    none
Selecting DispersionModel none
Selecting DragModel SphereDrag
Selecting InjectionModel ConeInjection
    Constructing 2-D injection
Selecting pdfType RosinRammler
Selecting PatchInteractionModel StandardWallInteraction
Selecting SurfaceFilmModel ThermoSurfaceFilm
    Applying absorb interaction model
Selecting U IntegrationScheme Euler
Selecting HeatTransferModel RanzMarshall
Selecting T IntegrationScheme Analytical
Selecting CompositionModel SinglePhaseMixture
Selecting PhaseChangeModel LiquidEvaporation

Constructing surface film model
Selecting surfaceFilmModel none
Courant Number mean: 0 max: 0

Starting time loop

Courant Number mean: 0 max: 0
deltaT = 0.0011976
cellSource HRR:
    total cells  = 1400
    total volume = 0.32



faceSource patchSides:
    total faces  = 80
    total area   = 0.16


faceSource patchOutlet:
    total faces  = 35
    total area   = 0.08


faceSource patchInlet:
    total faces  = 5
    total area   = 0.008


Reading/calculating field TMean

Reading/calculating field UMean

Reading/calculating field ftMean

Reading/calculating field dQMean

Reading/calculating field TPrime2Mean

Reading/calculating field ftPrime2Mean

fieldAverage: starting averaging at time 0

Time = 0.0011976

diagonal:  Solving for rho, Initial residual = 0, Final residual = 0, No Iterations 0
DILUPBiCG:  Solving for Ux, Initial residual = 1, Final residual = 7.38072e-07, No Iterations 1
DILUPBiCG:  Solving for Uy, Initial residual = 1, Final residual = 4.60623e-12, No Iterations 2
DILUPBiCG:  Solving for O2, Initial residual = 0.00677764, Final residual = 2.66382e-13, No Iterations 2
max of O2 = 0.23301
min of O2 = 0.23301
DILUPBiCG:  Solving for H2O, Initial residual = 0, Final residual = 0, No Iterations 0
max of H2O = 0
min of H2O = 0
DILUPBiCG:  Solving for CH4, Initial residual = 0.999998, Final residual = 3.05049e-15, No Iterations 2
max of CH4 = 1.19448e-09
min of CH4 = 1.03088e-275
DILUPBiCG:  Solving for CO2, Initial residual = 0, Final residual = 0, No Iterations 0
max of CO2 = 0
min of CO2 = 0
max of N2 = 0.76699
min of N2 = 0
DILUPBiCG:  Solving for hs, Initial residual = 0, Final residual = 0, No Iterations 0
GAMG:  Solving for p_rgh, Initial residual = 0.894675, Final residual = 0.00370442, No Iterations 4
diagonal:  Solving for rho, Initial residual = 0, Final residual = 0, No Iterations 0
time step continuity errors : sum local = 5.55703e-09, global = 2.25772e-09, cumulative = 2.25772e-09
GAMG:  Solving for p_rgh, Initial residual = 0.083296, Final residual = 7.6529e-07, No Iterations 8
diagonal:  Solving for rho, Initial residual = 0, Final residual = 0, No Iterations 0
time step continuity errors : sum local = 5.84728e-12, global = -2.04407e-12, cumulative = 2.25568e-09
DILUPBiCG:  Solving for k, Initial residual = 1, Final residual = 5.49462e-12, No Iterations 2
DILUPBiCG:  Solving for Ux, Initial residual = 2.14882e-05, Final residual = 1.29255e-11, No Iterations 1
DILUPBiCG:  Solving for Uy, Initial residual = 1.91901e-05, Final residual = 1.67233e-10, No Iterations 1
DILUPBiCG:  Solving for O2, Initial residual = 1, Final residual = 3.2285e-10, No Iterations 2
max of O2 = 0.23301
min of O2 = 0.00485014
DILUPBiCG:  Solving for H2O, Initial residual = 0.998416, Final residual = 3.22519e-10, No Iterations 2
max of H2O = 7.99921e-18
min of H2O = 0
DILUPBiCG:  Solving for CH4, Initial residual = 1, Final residual = 3.23035e-10, No Iterations 2
max of CH4 = 0.979185
min of CH4 = 0
DILUPBiCG:  Solving for CO2, Initial residual = 0.998703, Final residual = 3.22612e-10, No Iterations 2
max of CO2 = 9.77073e-18
min of CO2 = 0
max of N2 = 0.76699
min of N2 = 0
DILUPBiCG:  Solving for hs, Initial residual = 1, Final residual = 1.19829e-10, No Iterations 2
GAMG:  Solving for p_rgh, Initial residual = 0.0869141, Final residual = 0.0003056, No Iterations 4
diagonal:  Solving for rho, Initial residual = 0, Final residual = 0, No Iterations 0
time step continuity errors : sum local = 1.31729e-09, global = 6.10068e-10, cumulative = 2.86574e-09
GAMG:  Solving for p_rgh, Initial residual = 0.0494368, Final residual = 4.58924e-07, No Iterations 8
diagonal:  Solving for rho, Initial residual = 0, Final residual = 0, No Iterations 0
time step continuity errors : sum local = 2.94359e-12, global = 1.02869e-12, cumulative = 2.86677e-09
DILUPBiCG:  Solving for k, Initial residual = 0.0664561, Final residual = 4.74764e-11, No Iterations 2
DILUPBiCG:  Solving for Ux, Initial residual = 1.30104e-05, Final residual = 6.27604e-12, No Iterations 1
DILUPBiCG:  Solving for Uy, Initial residual = 1.65817e-05, Final residual = 1.97603e-10, No Iterations 1
DILUPBiCG:  Solving for O2, Initial residual = 0.00200671, Final residual = 2.25831e-12, No Iterations 2
max of O2 = 0.23301
min of O2 = 0.00477573
DILUPBiCG:  Solving for H2O, Initial residual = 1, Final residual = 1.13465e-09, No Iterations 2
max of H2O = 3.19871e-07
min of H2O = 0
DILUPBiCG:  Solving for CH4, Initial residual = 0.000164537, Final residual = 3.41125e-09, No Iterations 1
max of CH4 = 0.979504
min of CH4 = 0
DILUPBiCG:  Solving for CO2, Initial residual = 1, Final residual = 1.13465e-09, No Iterations 2
max of CO2 = 3.9071e-07
min of CO2 = 0
max of N2 = 0.76699
min of N2 = 0
DILUPBiCG:  Solving for hs, Initial residual = 0.301317, Final residual = 2.15277e-10, No Iterations 2
GAMG:  Solving for p_rgh, Initial residual = 0.0293504, Final residual = 8.12553e-05, No Iterations 4
diagonal:  Solving for rho, Initial residual = 0, Final residual = 0, No Iterations 0
time step continuity errors : sum local = 6.69921e-10, global = 3.21668e-10, cumulative = 3.18844e-09
GAMG:  Solving for p_rgh, Initial residual = 7.27107e-05, Final residual = 7.60438e-07, No Iterations 3
diagonal:  Solving for rho, Initial residual = 0, Final residual = 0, No Iterations 0
time step continuity errors : sum local = 7.09873e-12, global = -2.64114e-12, cumulative = 3.1858e-09
DILUPBiCG:  Solving for k, Initial residual = 0.010098, Final residual = 1.21557e-11, No Iterations 2
ExecutionTime = 0.07 s  ClockTime = 0 s

Courant Number mean: 4.19806e-06 max: 0.000910922
deltaT = 0.00143023
faceSource patchSides output:
    sum(sides) for phi = 2.15327e-06
    sum(sides) for HRR_fu = -3.61633e-72
    sum(sides) for phiH = 7.35736e-05
    sum(sides) for phiHs = 1.89373e-06
    sum(sides) for phiHc = 7.14492e-05

faceSource patchOutlet output:
    sum(outlet) for phi = -5.02946e-07
    sum(outlet) for HRR_fu = -9.56453e-187
    sum(outlet) for phiH = -1.53399e-05
    sum(outlet) for phiHs = 1.3487e-06
    sum(outlet) for phiHc = -1.66886e-05

faceSource patchInlet output:
    sum(inlet) for phi = -0.000200001
    sum(inlet) for HRR_fu = 10006.3
    sum(inlet) for phiH = 944.866
    sum(inlet) for phiHs = 4.67398e-05
    sum(inlet) for phiHc = 944.866

Calculating averages

Time = 0.00262784

diagonal:  Solving for rho, Initial residual = 0, Final residual = 0, No Iterations 0
DILUPBiCG:  Solving for Ux, Initial residual = 0.373868, Final residual = 1.21227e-07, No Iterations 1
DILUPBiCG:  Solving for Uy, Initial residual = 0.272545, Final residual = 3.13201e-11, No Iterations 2
DILUPBiCG:  Solving for O2, Initial residual = 0.19789, Final residual = 3.69002e-10, No Iterations 2
max of O2 = 0.23301
min of O2 = 0.00477431
DILUPBiCG:  Solving for H2O, Initial residual = 0.197846, Final residual = 3.71671e-10, No Iterations 2
max of H2O = 7.01494e-07
min of H2O = 0
DILUPBiCG:  Solving for CH4, Initial residual = 0.19789, Final residual = 3.71799e-10, No Iterations 2
max of CH4 = 0.97951
min of CH4 = 0
DILUPBiCG:  Solving for CO2, Initial residual = 0.197846, Final residual = 3.71671e-10, No Iterations 2
max of CO2 = 8.56848e-07
min of CO2 = 0
max of N2 = 0.76699
min of N2 = 0
DILUPBiCG:  Solving for hs, Initial residual = 0.310965, Final residual = 2.81338e-10, No Iterations 2
GAMG:  Solving for p_rgh, Initial residual = 0.340054, Final residual = 0.0023107, No Iterations 3
diagonal:  Solving for rho, Initial residual = 0, Final residual = 0, No Iterations 0
time step continuity errors : sum local = 2.91665e-08, global = -6.01538e-10, cumulative = 2.58426e-09
GAMG:  Solving for p_rgh, Initial residual = 0.0013976, Final residual = 4.84107e-07, No Iterations 5
diagonal:  Solving for rho, Initial residual = 0, Final residual = 0, No Iterations 0
time step continuity errors : sum local = 1.00881e-11, global = -2.3074e-14, cumulative = 2.58424e-09
DILUPBiCG:  Solving for k, Initial residual = 0.970267, Final residual = 2.08529e-11, No Iterations 2
DILUPBiCG:  Solving for Ux, Initial residual = 6.5956e-06, Final residual = 5.94309e-12, No Iterations 1
DILUPBiCG:  Solving for Uy, Initial residual = 4.94891e-06, Final residual = 6.42712e-11, No Iterations 1
DILUPBiCG:  Solving for O2, Initial residual = 0.00129377, Final residual = 6.06942e-12, No Iterations 2
max of O2 = 0.23301
min of O2 = 0.00477439
DILUPBiCG:  Solving for H2O, Initial residual = 0.118394, Final residual = 5.55285e-10, No Iterations 2
max of H2O = 1.15717e-06
min of H2O = 0
DILUPBiCG:  Solving for CH4, Initial residual = 9.97278e-05, Final residual = 2.87489e-09, No Iterations 1
max of CH4 = 0.97951
min of CH4 = 0
DILUPBiCG:  Solving for CO2, Initial residual = 0.118394, Final residual = 5.55285e-10, No Iterations 2
max of CO2 = 1.41343e-06
min of CO2 = 0
max of N2 = 0.76699
min of N2 = 0
DILUPBiCG:  Solving for hs, Initial residual = 0.126302, Final residual = 7.72332e-11, No Iterations 2
GAMG:  Solving for p_rgh, Initial residual = 0.0190523, Final residual = 0.000127746, No Iterations 3
diagonal:  Solving for rho, Initial residual = 0, Final residual = 0, No Iterations 0
time step continuity errors : sum local = 2.63959e-09, global = -8.88681e-10, cumulative = 1.69556e-09
GAMG:  Solving for p_rgh, Initial residual = 0.000128262, Final residual = 3.72613e-07, No Iterations 4
diagonal:  Solving for rho, Initial residual = 0, Final residual = 0, No Iterations 0
time step continuity errors : sum local = 7.60069e-12, global = -2.53682e-12, cumulative = 1.69302e-09
DILUPBiCG:  Solving for k, Initial residual = 0.00751015, Final residual = 7.47413e-12, No Iterations 2
DILUPBiCG:  Solving for Ux, Initial residual = 6.65575e-07, Final residual = 6.39879e-13, No Iterations 1
DILUPBiCG:  Solving for Uy, Initial residual = 5.44043e-07, Final residual = 4.8257e-12, No Iterations 1
DILUPBiCG:  Solving for O2, Initial residual = 1.68425e-06, Final residual = 7.29288e-11, No Iterations 1
max of O2 = 0.23301
min of O2 = 0.00477433
DILUPBiCG:  Solving for H2O, Initial residual = 7.12653e-05, Final residual = 1.8681e-09, No Iterations 1
max of H2O = 1.15685e-06
min of H2O = 0
DILUPBiCG:  Solving for CH4, Initial residual = 2.60397e-06, Final residual = 4.45439e-10, No Iterations 1
max of CH4 = 0.97951
min of CH4 = 0
DILUPBiCG:  Solving for CO2, Initial residual = 7.12653e-05, Final residual = 1.8681e-09, No Iterations 1
max of CO2 = 1.41305e-06
min of CO2 = 0
max of N2 = 0.76699
min of N2 = 0
DILUPBiCG:  Solving for hs, Initial residual = 0.0200455, Final residual = 8.2768e-12, No Iterations 2
GAMG:  Solving for p_rgh, Initial residual = 0.00283824, Final residual = 1.68675e-05, No Iterations 3
diagonal:  Solving for rho, Initial residual = 0, Final residual = 0, No Iterations 0
time step continuity errors : sum local = 3.45723e-10, global = -1.15031e-10, cumulative = 1.57799e-09
GAMG:  Solving for p_rgh, Initial residual = 1.67897e-05, Final residual = 8.71136e-07, No Iterations 2
diagonal:  Solving for rho, Initial residual = 0, Final residual = 0, No Iterations 0
time step continuity errors : sum local = 1.77722e-11, global = -6.24872e-12, cumulative = 1.57174e-09
DILUPBiCG:  Solving for k, Initial residual = 0.000810417, Final residual = 4.42953e-12, No Iterations 2
ExecutionTime = 0.1 s  ClockTime = 0 s

Courant Number mean: 1.17143e-05 max: 0.00108788
deltaT = 0.00170148
faceSource patchSides output:
    sum(sides) for phi = 4.58581e-05
    sum(sides) for HRR_fu = -2.72016e-65
    sum(sides) for phiH = 0.00152461
    sum(sides) for phiHs = 2.49959e-06
    sum(sides) for phiHc = 0.00152165

faceSource patchOutlet output:
    sum(outlet) for phi = -5.98325e-07
    sum(outlet) for HRR_fu = -7.39267e-176
    sum(outlet) for phiH = -1.69717e-05
    sum(outlet) for phiHs = 2.88176e-06
    sum(outlet) for phiHc = -1.98534e-05

faceSource patchInlet output:
    sum(inlet) for phi = -0.0002
    sum(inlet) for HRR_fu = 10006.3
    sum(inlet) for phiH = 944.856
    sum(inlet) for phiHs = 0.000100686
    sum(inlet) for phiHc = 944.856

Calculating averages

Time = 0.00432932

diagonal:  Solving for rho, Initial residual = 0, Final residual = 0, No Iterations 0
DILUPBiCG:  Solving for Ux, Initial residual = 0.265612, Final residual = 1.02029e-07, No Iterations 1
DILUPBiCG:  Solving for Uy, Initial residual = 0.211222, Final residual = 3.51526e-10, No Iterations 2
DILUPBiCG:  Solving for O2, Initial residual = 0.11857, Final residual = 7.3015e-10, No Iterations 2
max of O2 = 0.23301
min of O2 = 0.00477256
DILUPBiCG:  Solving for H2O, Initial residual = 0.151089, Final residual = 9.24576e-10, No Iterations 2
max of H2O = 2.15214e-06
min of H2O = 0
DILUPBiCG:  Solving for CH4, Initial residual = 0.118004, Final residual = 7.22498e-10, No Iterations 2
max of CH4 = 0.979517
min of CH4 = 0
DILUPBiCG:  Solving for CO2, Initial residual = 0.151089, Final residual = 9.24576e-10, No Iterations 2
max of CO2 = 2.62875e-06
min of CO2 = 0
max of N2 = 0.76699
min of N2 = 0
DILUPBiCG:  Solving for hs, Initial residual = 0.232882, Final residual = 5.68172e-10, No Iterations 2
GAMG:  Solving for p_rgh, Initial residual = 0.148991, Final residual = 0.000427312, No Iterations 4
diagonal:  Solving for rho, Initial residual = 0, Final residual = 0, No Iterations 0
time step continuity errors : sum local = 1.1044e-08, global = 4.46604e-09, cumulative = 6.03778e-09
GAMG:  Solving for p_rgh, Initial residual = 0.000334749, Final residual = 3.19088e-07, No Iterations 5
diagonal:  Solving for rho, Initial residual = 0, Final residual = 0, No Iterations 0
time step continuity errors : sum local = 1.08108e-11, global = -3.40553e-12, cumulative = 6.03438e-09
DILUPBiCG:  Solving for k, Initial residual = 0.946311, Final residual = 2.83122e-11, No Iterations 2
DILUPBiCG:  Solving for Ux, Initial residual = 1.71408e-06, Final residual = 1.28664e-12, No Iterations 1
DILUPBiCG:  Solving for Uy, Initial residual = 1.89107e-06, Final residual = 1.20072e-10, No Iterations 1
DILUPBiCG:  Solving for O2, Initial residual = 0.00108425, Final residual = 6.54773e-12, No Iterations 2
max of O2 = 0.23301
min of O2 = 0.00477262
DILUPBiCG:  Solving for H2O, Initial residual = 0.058309, Final residual = 3.53284e-10, No Iterations 2
max of H2O = 2.79651e-06
min of H2O = 0
DILUPBiCG:  Solving for CH4, Initial residual = 6.83419e-05, Final residual = 2.39721e-09, No Iterations 1
max of CH4 = 0.979517
min of CH4 = 0
DILUPBiCG:  Solving for CO2, Initial residual = 0.058309, Final residual = 3.53284e-10, No Iterations 2
max of CO2 = 3.41583e-06
min of CO2 = 0
max of N2 = 0.76699
min of N2 = 0
DILUPBiCG:  Solving for hs, Initial residual = 0.111882, Final residual = 3.51248e-10, No Iterations 2
GAMG:  Solving for p_rgh, Initial residual = 0.0146529, Final residual = 3.45029e-05, No Iterations 4
diagonal:  Solving for rho, Initial residual = 0, Final residual = 0, No Iterations 0
time step continuity errors : sum local = 1.15882e-09, global = -1.67215e-11, cumulative = 6.01765e-09
GAMG:  Solving for p_rgh, Initial residual = 3.55979e-05, Final residual = 4.14233e-07, No Iterations 3
diagonal:  Solving for rho, Initial residual = 0, Final residual = 0, No Iterations 0
time step continuity errors : sum local = 1.36574e-11, global = -3.70365e-14, cumulative = 6.01762e-09
DILUPBiCG:  Solving for k, Initial residual = 0.00778134, Final residual = 6.68749e-11, No Iterations 2
DILUPBiCG:  Solving for Ux, Initial residual = 3.85456e-07, Final residual = 7.31631e-13, No Iterations 1
DILUPBiCG:  Solving for Uy, Initial residual = 4.47271e-07, Final residual = 9.30576e-12, No Iterations 1
DILUPBiCG:  Solving for O2, Initial residual = 8.72347e-06, Final residual = 3.50841e-10, No Iterations 1
max of O2 = 0.23301
min of O2 = 0.00477253
DILUPBiCG:  Solving for H2O, Initial residual = 5.21984e-05, Final residual = 2.39945e-09, No Iterations 1
max of H2O = 2.79589e-06
min of H2O = 0
DILUPBiCG:  Solving for CH4, Initial residual = 9.8828e-06, Final residual = 2.8118e-10, No Iterations 1
max of CH4 = 0.979517
min of CH4 = 0
DILUPBiCG:  Solving for CO2, Initial residual = 5.21984e-05, Final residual = 2.39945e-09, No Iterations 1
max of CO2 = 3.41508e-06
min of CO2 = 0
max of N2 = 0.76699
min of N2 = 0
DILUPBiCG:  Solving for hs, Initial residual = 0.0135767, Final residual = 2.98598e-12, No Iterations 2
GAMG:  Solving for p_rgh, Initial residual = 0.00166405, Final residual = 1.52432e-05, No Iterations 3
diagonal:  Solving for rho, Initial residual = 0, Final residual = 0, No Iterations 0
time step continuity errors : sum local = 5.01466e-10, global = 9.57577e-11, cumulative = 6.11337e-09
GAMG:  Solving for p_rgh, Initial residual = 1.5328e-05, Final residual = 7.496e-07, No Iterations 2
diagonal:  Solving for rho, Initial residual = 0, Final residual = 0, No Iterations 0
time step continuity errors : sum local = 2.45455e-11, global = 4.23514e-12, cumulative = 6.11761e-09
DILUPBiCG:  Solving for k, Initial residual = 0.000431614, Final residual = 9.31879e-12, No Iterations 2
ExecutionTime = 0.12 s  ClockTime = 1 s

Courant Number mean: 2.27608e-05 max: 0.00129422
deltaT = 0.00203824
faceSource patchSides output:
    sum(sides) for phi = 0.000177412
    sum(sides) for HRR_fu = -1.54462e-60
    sum(sides) for phiH = 0.00589564
    sum(sides) for phiHs = 8.74741e-06
    sum(sides) for phiHc = 0.00588682

faceSource patchOutlet output:
    sum(outlet) for phi = -7.03097e-07
    sum(outlet) for HRR_fu = -2.12241e-167
    sum(outlet) for phiH = -1.56346e-05
    sum(outlet) for phiHs = 7.69534e-06
    sum(outlet) for phiHc = -2.33299e-05

faceSource patchInlet output:
    sum(inlet) for phi = -0.0002
    sum(inlet) for HRR_fu = 10006.3
    sum(inlet) for phiH = 944.851
    sum(inlet) for phiHs = 0.000216497
    sum(inlet) for phiHc = 944.851

Calculating averages

Time = 0.00636756

diagonal:  Solving for rho, Initial residual = 0, Final residual = 0, No Iterations 0
DILUPBiCG:  Solving for Ux, Initial residual = 0.207159, Final residual = 1.83672e-07, No Iterations 1
DILUPBiCG:  Solving for Uy, Initial residual = 0.181303, Final residual = 1.82839e-11, No Iterations 2
DILUPBiCG:  Solving for O2, Initial residual = 0.0896324, Final residual = 9.15895e-10, No Iterations 2
max of O2 = 0.23301
min of O2 = 0.0047704
DILUPBiCG:  Solving for H2O, Initial residual = 0.126868, Final residual = 1.2982e-09, No Iterations 2
max of H2O = 4.7583e-06
min of H2O = 0
DILUPBiCG:  Solving for CH4, Initial residual = 0.0886758, Final residual = 9.08256e-10, No Iterations 2
max of CH4 = 0.979526
min of CH4 = 0
DILUPBiCG:  Solving for CO2, Initial residual = 0.126868, Final residual = 1.2982e-09, No Iterations 2
max of CO2 = 5.81208e-06
min of CO2 = 0
max of N2 = 0.76699
min of N2 = 0
DILUPBiCG:  Solving for hs, Initial residual = 0.217873, Final residual = 1.5018e-09, No Iterations 2
GAMG:  Solving for p_rgh, Initial residual = 0.0788594, Final residual = 0.000242212, No Iterations 4
diagonal:  Solving for rho, Initial residual = 0, Final residual = 0, No Iterations 0
time step continuity errors : sum local = 1.01646e-08, global = 3.3651e-09, cumulative = 9.48271e-09
GAMG:  Solving for p_rgh, Initial residual = 0.000233801, Final residual = 9.88048e-07, No Iterations 4
diagonal:  Solving for rho, Initial residual = 0, Final residual = 0, No Iterations 0
time step continuity errors : sum local = 4.38759e-11, global = 1.30541e-11, cumulative = 9.49576e-09
DILUPBiCG:  Solving for k, Initial residual = 0.92746, Final residual = 6.08126e-11, No Iterations 2
DILUPBiCG:  Solving for Ux, Initial residual = 4.97944e-07, Final residual = 4.97944e-07, No Iterations 0
DILUPBiCG:  Solving for Uy, Initial residual = 1.50427e-06, Final residual = 3.40415e-11, No Iterations 1
DILUPBiCG:  Solving for O2, Initial residual = 0.00104735, Final residual = 1.04425e-11, No Iterations 2
max of O2 = 0.23301
min of O2 = 0.00477043
DILUPBiCG:  Solving for H2O, Initial residual = 0.0386121, Final residual = 3.86829e-10, No Iterations 2
max of H2O = 5.68187e-06
min of H2O = 0
DILUPBiCG:  Solving for CH4, Initial residual = 6.61564e-05, Final residual = 2.73027e-09, No Iterations 1
max of CH4 = 0.979526
min of CH4 = 0
DILUPBiCG:  Solving for CO2, Initial residual = 0.0386121, Final residual = 3.86829e-10, No Iterations 2
max of CO2 = 6.94019e-06
min of CO2 = 0
max of N2 = 0.76699
min of N2 = 0
DILUPBiCG:  Solving for hs, Initial residual = 0.118875, Final residual = 7.39348e-10, No Iterations 2
GAMG:  Solving for p_rgh, Initial residual = 0.013921, Final residual = 3.92706e-05, No Iterations 4
diagonal:  Solving for rho, Initial residual = 0, Final residual = 0, No Iterations 0
time step continuity errors : sum local = 1.73235e-09, global = -4.02851e-10, cumulative = 9.09291e-09
GAMG:  Solving for p_rgh, Initial residual = 4.12582e-05, Final residual = 6.6705e-07, No Iterations 3
diagonal:  Solving for rho, Initial residual = 0, Final residual = 0, No Iterations 0
time step continuity errors : sum local = 2.86001e-11, global = 6.9882e-12, cumulative = 9.0999e-09
DILUPBiCG:  Solving for k, Initial residual = 0.00661341, Final residual = 9.75852e-11, No Iterations 2
DILUPBiCG:  Solving for Ux, Initial residual = 4.47179e-07, Final residual = 1.01424e-12, No Iterations 1
DILUPBiCG:  Solving for Uy, Initial residual = 7.26413e-07, Final residual = 1.59038e-11, No Iterations 1
DILUPBiCG:  Solving for O2, Initial residual = 1.16082e-05, Final residual = 5.28831e-10, No Iterations 1
max of O2 = 0.23301
min of O2 = 0.00477035
DILUPBiCG:  Solving for H2O, Initial residual = 5.03988e-05, Final residual = 1.47562e-13, No Iterations 2
max of H2O = 5.68076e-06
min of H2O = 0
DILUPBiCG:  Solving for CH4, Initial residual = 1.24268e-05, Final residual = 4.21366e-10, No Iterations 1
max of CH4 = 0.979526
min of CH4 = 0
DILUPBiCG:  Solving for CO2, Initial residual = 5.03988e-05, Final residual = 1.47562e-13, No Iterations 2
max of CO2 = 6.93884e-06
min of CO2 = 0
max of N2 = 0.76699
min of N2 = 0
DILUPBiCG:  Solving for hs, Initial residual = 0.0145385, Final residual = 1.17094e-11, No Iterations 2
GAMG:  Solving for p_rgh, Initial residual = 0.00164633, Final residual = 1.63306e-05, No Iterations 3
diagonal:  Solving for rho, Initial residual = 0, Final residual = 0, No Iterations 0
time step continuity errors : sum local = 6.99237e-10, global = 2.25439e-10, cumulative = 9.32534e-09
GAMG:  Solving for p_rgh, Initial residual = 1.65196e-05, Final residual = 2.75562e-07, No Iterations 3
diagonal:  Solving for rho, Initial residual = 0, Final residual = 0, No Iterations 0
time step continuity errors : sum local = 1.17207e-11, global = -3.29375e-12, cumulative = 9.32205e-09
DILUPBiCG:  Solving for k, Initial residual = 0.000419963, Final residual = 1.9927e-11, No Iterations 2
ExecutionTime = 0.14 s  ClockTime = 1 s

Courant Number mean: 3.74003e-05 max: 0.00155039
deltaT = 0.00242041
faceSource patchSides output:
    sum(sides) for phi = 0.000391129
    sum(sides) for HRR_fu = -5.06581e-57
    sum(sides) for phiH = 0.013
    sum(sides) for phiHs = 2.23217e-05
    sum(sides) for phiHc = 0.0129783

faceSource patchOutlet output:
    sum(outlet) for phi = -8.10717e-07
    sum(outlet) for HRR_fu = -7.39806e-161
    sum(outlet) for phiH = -4.65046e-06
    sum(outlet) for phiHs = 2.22505e-05
    sum(outlet) for phiHc = -2.6901e-05

faceSource patchInlet output:
    sum(inlet) for phi = -0.0002
    sum(inlet) for HRR_fu = 10006.3
    sum(inlet) for phiH = 944.845
    sum(inlet) for phiHs = 0.000428306
    sum(inlet) for phiHc = 944.845

Calculating averages

Time = 0.00878796

diagonal:  Solving for rho, Initial residual = 0, Final residual = 0, No Iterations 0
DILUPBiCG:  Solving for Ux, Initial residual = 0.165791, Final residual = 3.42182e-07, No Iterations 1
DILUPBiCG:  Solving for Uy, Initial residual = 0.139217, Final residual = 7.86579e-11, No Iterations 2
DILUPBiCG:  Solving for O2, Initial residual = 0.0741704, Final residual = 1.26015e-09, No Iterations 2
max of O2 = 0.23301
min of O2 = 0.00476779
DILUPBiCG:  Solving for H2O, Initial residual = 0.111008, Final residual = 1.89486e-09, No Iterations 2
max of H2O = 9.10438e-06
min of H2O = 0
DILUPBiCG:  Solving for CH4, Initial residual = 0.0728635, Final residual = 1.2457e-09, No Iterations 2
max of CH4 = 0.979537
min of CH4 = 0
DILUPBiCG:  Solving for CO2, Initial residual = 0.111008, Final residual = 1.89486e-09, No Iterations 2
max of CO2 = 1.11206e-05
min of CO2 = 0
max of N2 = 0.76699
min of N2 = 0
DILUPBiCG:  Solving for hs, Initial residual = 0.204485, Final residual = 2.79024e-09, No Iterations 2
GAMG:  Solving for p_rgh, Initial residual = 0.0600903, Final residual = 0.000207437, No Iterations 4
diagonal:  Solving for rho, Initial residual = 0, Final residual = 0, No Iterations 0
time step continuity errors : sum local = 1.12656e-08, global = -2.11442e-09, cumulative = 7.20763e-09
GAMG:  Solving for p_rgh, Initial residual = 0.000258467, Final residual = 3.40619e-07, No Iterations 5
diagonal:  Solving for rho, Initial residual = 0, Final residual = 0, No Iterations 0
time step continuity errors : sum local = 1.47096e-11, global = 1.84982e-12, cumulative = 7.20948e-09
DILUPBiCG:  Solving for k, Initial residual = 0.911094, Final residual = 1.47577e-10, No Iterations 2
DILUPBiCG:  Solving for Ux, Initial residual = 3.14488e-07, Final residual = 3.14488e-07, No Iterations 0
DILUPBiCG:  Solving for Uy, Initial residual = 1.2176e-06, Final residual = 3.48598e-11, No Iterations 1
DILUPBiCG:  Solving for O2, Initial residual = 0.00106063, Final residual = 1.8572e-11, No Iterations 2
max of O2 = 0.23301
min of O2 = 0.00476779
DILUPBiCG:  Solving for H2O, Initial residual = 0.0287302, Final residual = 5.08635e-10, No Iterations 2
max of H2O = 1.04048e-05
min of H2O = 0
DILUPBiCG:  Solving for CH4, Initial residual = 6.5916e-05, Final residual = 3.81316e-09, No Iterations 1
max of CH4 = 0.979537
min of CH4 = 0
DILUPBiCG:  Solving for CO2, Initial residual = 0.0287302, Final residual = 5.08635e-10, No Iterations 2
max of CO2 = 1.27091e-05
min of CO2 = 0
max of N2 = 0.76699
min of N2 = 0
DILUPBiCG:  Solving for hs, Initial residual = 0.088929, Final residual = 1.10045e-09, No Iterations 2
GAMG:  Solving for p_rgh, Initial residual = 0.014797, Final residual = 6.85728e-05, No Iterations 4
diagonal:  Solving for rho, Initial residual = 0, Final residual = 0, No Iterations 0
time step continuity errors : sum local = 2.95147e-09, global = -5.60736e-10, cumulative = 6.64874e-09
GAMG:  Solving for p_rgh, Initial residual = 7.20371e-05, Final residual = 3.27187e-07, No Iterations 4
diagonal:  Solving for rho, Initial residual = 0, Final residual = 0, No Iterations 0
time step continuity errors : sum local = 1.37377e-11, global = -2.3497e-12, cumulative = 6.64639e-09
DILUPBiCG:  Solving for k, Initial residual = 0.00625157, Final residual = 1.77522e-10, No Iterations 2
DILUPBiCG:  Solving for Ux, Initial residual = 5.00009e-07, Final residual = 1.50613e-12, No Iterations 1
DILUPBiCG:  Solving for Uy, Initial residual = 1.03929e-06, Final residual = 2.53388e-11, No Iterations 1
DILUPBiCG:  Solving for O2, Initial residual = 1.59814e-05, Final residual = 9.09944e-10, No Iterations 1
max of O2 = 0.23301
min of O2 = 0.00476773
DILUPBiCG:  Solving for H2O, Initial residual = 5.35947e-05, Final residual = 9.45629e-09, No Iterations 1
max of H2O = 1.04029e-05
min of H2O = 0
DILUPBiCG:  Solving for CH4, Initial residual = 1.6032e-05, Final residual = 6.67921e-10, No Iterations 1
max of CH4 = 0.979537
min of CH4 = 0
DILUPBiCG:  Solving for CO2, Initial residual = 5.35947e-05, Final residual = 9.45629e-09, No Iterations 1
max of CO2 = 1.27067e-05
min of CO2 = 0
max of N2 = 0.76699
min of N2 = 0
DILUPBiCG:  Solving for hs, Initial residual = 0.00940932, Final residual = 2.03741e-11, No Iterations 2
GAMG:  Solving for p_rgh, Initial residual = 0.00170098, Final residual = 7.55044e-06, No Iterations 4
diagonal:  Solving for rho, Initial residual = 0, Final residual = 0, No Iterations 0
time step continuity errors : sum local = 3.16364e-10, global = -7.65602e-11, cumulative = 6.56983e-09
GAMG:  Solving for p_rgh, Initial residual = 7.70529e-06, Final residual = 5.41005e-07, No Iterations 2
diagonal:  Solving for rho, Initial residual = 0, Final residual = 0, No Iterations 0
time step continuity errors : sum local = 2.25635e-11, global = -4.88346e-12, cumulative = 6.56495e-09
DILUPBiCG:  Solving for k, Initial residual = 0.000341624, Final residual = 4.39612e-11, No Iterations 2
ExecutionTime = 0.19 s  ClockTime = 1 s

Courant Number mean: 5.30366e-05 max: 0.0018411
deltaT = 0.00289715
faceSource patchSides output:
    sum(sides) for phi = 0.000596865
    sum(sides) for HRR_fu = -8.21287e-55
    sum(sides) for phiH = 0.0198271
    sum(sides) for phiHs = 2.28534e-05
    sum(sides) for phiHc = 0.019805

faceSource patchOutlet output:
    sum(outlet) for phi = -9.08582e-07
    sum(outlet) for HRR_fu = -9.33931e-156
    sum(outlet) for phiH = 1.31489e-05
    sum(outlet) for phiHs = 4.32971e-05
    sum(outlet) for phiHc = -3.01483e-05

faceSource patchInlet output:
    sum(inlet) for phi = -0.0002
    sum(inlet) for HRR_fu = 10006.3
    sum(inlet) for phiH = 944.838
    sum(inlet) for phiHs = 0.000778069
    sum(inlet) for phiHc = 944.837

Calculating averages

Time = 0.0116851

diagonal:  Solving for rho, Initial residual = 0, Final residual = 0, No Iterations 0
DILUPBiCG:  Solving for Ux, Initial residual = 0.12455, Final residual = 4.4438e-07, No Iterations 1
DILUPBiCG:  Solving for Uy, Initial residual = 0.0666888, Final residual = 6.08924e-11, No Iterations 2
DILUPBiCG:  Solving for O2, Initial residual = 0.0655243, Final residual = 2.0323e-09, No Iterations 2
max of O2 = 0.23301
min of O2 = 0.00476461
DILUPBiCG:  Solving for H2O, Initial residual = 0.101215, Final residual = 3.16281e-09, No Iterations 2
max of H2O = 1.60506e-05
min of H2O = 0
DILUPBiCG:  Solving for CH4, Initial residual = 0.0638452, Final residual = 2.00035e-09, No Iterations 2
max of CH4 = 0.979549
min of CH4 = 0
DILUPBiCG:  Solving for CO2, Initial residual = 0.101215, Final residual = 3.16281e-09, No Iterations 2
max of CO2 = 1.96053e-05
min of CO2 = 0
max of N2 = 0.76699
min of N2 = 0
DILUPBiCG:  Solving for hs, Initial residual = 0.169179, Final residual = 4.46267e-09, No Iterations 2
GAMG:  Solving for p_rgh, Initial residual = 0.0693914, Final residual = 0.000678078, No Iterations 3
diagonal:  Solving for rho, Initial residual = 0, Final residual = 0, No Iterations 0
time step continuity errors : sum local = 3.84459e-08, global = 8.17247e-09, cumulative = 1.47374e-08
GAMG:  Solving for p_rgh, Initial residual = 0.00139735, Final residual = 3.87164e-07, No Iterations 6
diagonal:  Solving for rho, Initial residual = 0, Final residual = 0, No Iterations 0
time step continuity errors : sum local = 1.06211e-11, global = -5.33362e-14, cumulative = 1.47374e-08
DILUPBiCG:  Solving for k, Initial residual = 0.897165, Final residual = 3.36227e-10, No Iterations 2
DILUPBiCG:  Solving for Ux, Initial residual = 4.66625e-07, Final residual = 4.66625e-07, No Iterations 0
DILUPBiCG:  Solving for Uy, Initial residual = 7.96656e-07, Final residual = 7.96656e-07, No Iterations 0
DILUPBiCG:  Solving for O2, Initial residual = 0.0011292, Final residual = 3.62868e-11, No Iterations 2
max of O2 = 0.23301
min of O2 = 0.00476459
DILUPBiCG:  Solving for H2O, Initial residual = 0.023458, Final residual = 7.69078e-10, No Iterations 2
max of H2O = 1.79105e-05
min of H2O = 0
DILUPBiCG:  Solving for CH4, Initial residual = 7.06343e-05, Final residual = 6.13073e-09, No Iterations 1
max of CH4 = 0.979549
min of CH4 = 0
DILUPBiCG:  Solving for CO2, Initial residual = 0.023458, Final residual = 7.69078e-10, No Iterations 2
max of CO2 = 2.1877e-05
min of CO2 = 0
max of N2 = 0.76699
min of N2 = 0
DILUPBiCG:  Solving for hs, Initial residual = 0.0499344, Final residual = 1.28415e-09, No Iterations 2
GAMG:  Solving for p_rgh, Initial residual = 0.0218111, Final residual = 0.000154336, No Iterations 4
diagonal:  Solving for rho, Initial residual = 0, Final residual = 0, No Iterations 0
time step continuity errors : sum local = 4.24451e-09, global = -2.68777e-11, cumulative = 1.47105e-08
GAMG:  Solving for p_rgh, Initial residual = 0.000152202, Final residual = 8.68181e-07, No Iterations 4
diagonal:  Solving for rho, Initial residual = 0, Final residual = 0, No Iterations 0
time step continuity errors : sum local = 2.45894e-11, global = 7.50373e-14, cumulative = 1.47106e-08
DILUPBiCG:  Solving for k, Initial residual = 0.00597684, Final residual = 3.97456e-10, No Iterations 2
DILUPBiCG:  Solving for Ux, Initial residual = 6.96614e-07, Final residual = 2.95461e-12, No Iterations 1
DILUPBiCG:  Solving for Uy, Initial residual = 1.60934e-06, Final residual = 3.73286e-11, No Iterations 1
DILUPBiCG:  Solving for O2, Initial residual = 2.31408e-05, Final residual = 1.66734e-09, No Iterations 1
max of O2 = 0.23301
min of O2 = 0.00476452
DILUPBiCG:  Solving for H2O, Initial residual = 6.28273e-05, Final residual = 8.084e-09, No Iterations 1
max of H2O = 1.79069e-05
min of H2O = 0
DILUPBiCG:  Solving for CH4, Initial residual = 2.24681e-05, Final residual = 1.16477e-09, No Iterations 1
max of CH4 = 0.979549
min of CH4 = 0
DILUPBiCG:  Solving for CO2, Initial residual = 6.28273e-05, Final residual = 8.084e-09, No Iterations 1
max of CO2 = 2.18726e-05
min of CO2 = 0
max of N2 = 0.76699
min of N2 = 0
DILUPBiCG:  Solving for hs, Initial residual = 0.00669348, Final residual = 1.82591e-11, No Iterations 2
GAMG:  Solving for p_rgh, Initial residual = 0.00305888, Final residual = 1.11705e-05, No Iterations 4
diagonal:  Solving for rho, Initial residual = 0, Final residual = 0, No Iterations 0
time step continuity errors : sum local = 3.1542e-10, global = 3.7288e-11, cumulative = 1.47479e-08
GAMG:  Solving for p_rgh, Initial residual = 1.09549e-05, Final residual = 8.42767e-07, No Iterations 2
diagonal:  Solving for rho, Initial residual = 0, Final residual = 0, No Iterations 0
time step continuity errors : sum local = 2.39077e-11, global = 1.70981e-12, cumulative = 1.47496e-08
DILUPBiCG:  Solving for k, Initial residual = 0.000286059, Final residual = 3.22379e-11, No Iterations 2
ExecutionTime = 0.22 s  ClockTime = 1 s

Courant Number mean: 6.76482e-05 max: 0.00220376
deltaT = 0.00342391
faceSource patchSides output:
    sum(sides) for phi = 0.000704589
    sum(sides) for HRR_fu = -6.69965e-53
    sum(sides) for phiH = 0.0233888
    sum(sides) for phiHs = 9.45797e-06
    sum(sides) for phiHc = 0.0233795

faceSource patchOutlet output:
    sum(outlet) for phi = -1.07619e-06
    sum(outlet) for HRR_fu = -1.31825e-152
    sum(outlet) for phiH = 1.12617e-05
    sum(outlet) for phiHs = 4.69716e-05
    sum(outlet) for phiHc = -3.57099e-05

faceSource patchInlet output:
    sum(inlet) for phi = -0.0002
    sum(inlet) for HRR_fu = 10006.3
    sum(inlet) for phiH = 944.83
    sum(inlet) for phiHs = 0.00133576
    sum(inlet) for phiHc = 944.828

Calculating averages

Time = 0.015109

diagonal:  Solving for rho, Initial residual = 0, Final residual = 0, No Iterations 0
DILUPBiCG:  Solving for Ux, Initial residual = 0.0696112, Final residual = 2.82202e-07, No Iterations 1
DILUPBiCG:  Solving for Uy, Initial residual = 0.0322355, Final residual = 8.14109e-07, No Iterations 1
DILUPBiCG:  Solving for O2, Initial residual = 0.0592641, Final residual = 3.46505e-09, No Iterations 2
max of O2 = 0.23301
min of O2 = 0.00476075
DILUPBiCG:  Solving for H2O, Initial residual = 0.093166, Final residual = 5.5138e-09, No Iterations 2
max of H2O = 2.6767e-05
min of H2O = 0
DILUPBiCG:  Solving for CH4, Initial residual = 0.0571996, Final residual = 3.4008e-09, No Iterations 2
max of CH4 = 0.979564
min of CH4 = 0
DILUPBiCG:  Solving for CO2, Initial residual = 0.093166, Final residual = 5.5138e-09, No Iterations 2
max of CO2 = 3.26949e-05
min of CO2 = 0
max of N2 = 0.76699
min of N2 = 0
DILUPBiCG:  Solving for hs, Initial residual = 0.136239, Final residual = 7.05619e-09, No Iterations 2
GAMG:  Solving for p_rgh, Initial residual = 0.0942643, Final residual = 0.000909621, No Iterations 3
diagonal:  Solving for rho, Initial residual = 0, Final residual = 0, No Iterations 0
time step continuity errors : sum local = 3.58694e-08, global = 6.36947e-09, cumulative = 2.1119e-08
GAMG:  Solving for p_rgh, Initial residual = 0.00342921, Final residual = 3.83852e-07, No Iterations 7
diagonal:  Solving for rho, Initial residual = 0, Final residual = 0, No Iterations 0
time step continuity errors : sum local = 4.01466e-12, global = -2.18365e-13, cumulative = 2.11188e-08
DILUPBiCG:  Solving for k, Initial residual = 0.883352, Final residual = 7.20981e-10, No Iterations 2
DILUPBiCG:  Solving for Ux, Initial residual = 2.97724e-07, Final residual = 2.97724e-07, No Iterations 0
DILUPBiCG:  Solving for Uy, Initial residual = 9.13138e-07, Final residual = 9.13138e-07, No Iterations 0
DILUPBiCG:  Solving for O2, Initial residual = 0.00120205, Final residual = 7.17754e-11, No Iterations 2
max of O2 = 0.23301
min of O2 = 0.00476069
DILUPBiCG:  Solving for H2O, Initial residual = 0.0197053, Final residual = 1.21959e-09, No Iterations 2
max of H2O = 2.9359e-05
min of H2O = 0
DILUPBiCG:  Solving for CH4, Initial residual = 7.58247e-05, Final residual = 9.53685e-09, No Iterations 1
max of CH4 = 0.979564
min of CH4 = 0
DILUPBiCG:  Solving for CO2, Initial residual = 0.0197053, Final residual = 1.21959e-09, No Iterations 2
max of CO2 = 3.58609e-05
min of CO2 = 0
max of N2 = 0.76699
min of N2 = 0
DILUPBiCG:  Solving for hs, Initial residual = 0.0368706, Final residual = 1.90465e-09, No Iterations 2
GAMG:  Solving for p_rgh, Initial residual = 0.0681665, Final residual = 0.00052164, No Iterations 4
diagonal:  Solving for rho, Initial residual = 0, Final residual = 0, No Iterations 0
time step continuity errors : sum local = 5.47155e-09, global = 4.12569e-10, cumulative = 2.15314e-08
GAMG:  Solving for p_rgh, Initial residual = 0.00114621, Final residual = 7.33545e-07, No Iterations 6
diagonal:  Solving for rho, Initial residual = 0, Final residual = 0, No Iterations 0
time step continuity errors : sum local = 3.57658e-12, global = 1.10088e-13, cumulative = 2.15315e-08
DILUPBiCG:  Solving for k, Initial residual = 0.00571774, Final residual = 1.22443e-09, No Iterations 2
DILUPBiCG:  Solving for Ux, Initial residual = 1.06811e-06, Final residual = 6.24969e-12, No Iterations 1
DILUPBiCG:  Solving for Uy, Initial residual = 2.48019e-06, Final residual = 8.54855e-11, No Iterations 1
DILUPBiCG:  Solving for O2, Initial residual = 3.27422e-05, Final residual = 2.98646e-09, No Iterations 1
max of O2 = 0.23301
min of O2 = 0.00476064
DILUPBiCG:  Solving for H2O, Initial residual = 7.49649e-05, Final residual = 9.84497e-09, No Iterations 1
max of H2O = 2.93526e-05
min of H2O = 0
DILUPBiCG:  Solving for CH4, Initial residual = 3.10992e-05, Final residual = 1.98417e-09, No Iterations 1
max of CH4 = 0.979564
min of CH4 = 0
DILUPBiCG:  Solving for CO2, Initial residual = 7.49649e-05, Final residual = 9.84497e-09, No Iterations 1
max of CO2 = 3.58531e-05
min of CO2 = 0
max of N2 = 0.76699
min of N2 = 0
DILUPBiCG:  Solving for hs, Initial residual = 0.00534691, Final residual = 1.74362e-11, No Iterations 2
GAMG:  Solving for p_rgh, Initial residual = 0.0237367, Final residual = 8.6949e-05, No Iterations 4
diagonal:  Solving for rho, Initial residual = 0, Final residual = 0, No Iterations 0
time step continuity errors : sum local = 4.13245e-10, global = 1.00284e-10, cumulative = 2.16318e-08
GAMG:  Solving for p_rgh, Initial residual = 7.45025e-05, Final residual = 5.0552e-07, No Iterations 4
diagonal:  Solving for rho, Initial residual = 0, Final residual = 0, No Iterations 0
time step continuity errors : sum local = 2.76221e-12, global = 2.24052e-13, cumulative = 2.1632e-08
DILUPBiCG:  Solving for k, Initial residual = 0.000272901, Final residual = 1.24152e-11, No Iterations 2
ExecutionTime = 0.28 s  ClockTime = 1 s

Courant Number mean: 7.97586e-05 max: 0.00260445
deltaT = 0.00401937
faceSource patchSides output:
    sum(sides) for phi = 0.00069561
    sum(sides) for HRR_fu = -1.09259e-51
    sum(sides) for phiH = 0.0230807
    sum(sides) for phiHs = -1.37741e-06
    sum(sides) for phiHc = 0.0230815

faceSource patchOutlet output:
    sum(outlet) for phi = -1.36839e-06
    sum(outlet) for HRR_fu = -2.87744e-150
    sum(outlet) for phiH = -2.49825e-05
    sum(outlet) for phiHs = 2.04229e-05
    sum(outlet) for phiHc = -4.54053e-05

faceSource patchInlet output:
    sum(inlet) for phi = -0.0002
    sum(inlet) for HRR_fu = 10006.3
    sum(inlet) for phiH = 944.82
    sum(inlet) for phiHs = 0.00218841
    sum(inlet) for phiHc = 944.818

Calculating averages

Time = 0.0191284

diagonal:  Solving for rho, Initial residual = 0, Final residual = 0, No Iterations 0
DILUPBiCG:  Solving for Ux, Initial residual = 0.0266595, Final residual = 3.24809e-08, No Iterations 1
DILUPBiCG:  Solving for Uy, Initial residual = 0.0499147, Final residual = 1.77067e-10, No Iterations 2
DILUPBiCG:  Solving for O2, Initial residual = 0.0547478, Final residual = 6.36154e-09, No Iterations 2
max of O2 = 0.23301
min of O2 = 0.0047561
DILUPBiCG:  Solving for H2O, Initial residual = 0.0867891, Final residual = 1.51232e-16, No Iterations 3
max of H2O = 4.27739e-05
min of H2O = 0
DILUPBiCG:  Solving for CH4, Initial residual = 0.0522715, Final residual = 6.2534e-09, No Iterations 2
max of CH4 = 0.979581
min of CH4 = 0
DILUPBiCG:  Solving for CO2, Initial residual = 0.0867891, Final residual = 1.51232e-16, No Iterations 3
max of CO2 = 5.22467e-05
min of CO2 = 0
max of N2 = 0.76699
min of N2 = 0
DILUPBiCG:  Solving for hs, Initial residual = 0.111001, Final residual = 5.55023e-15, No Iterations 3
GAMG:  Solving for p_rgh, Initial residual = 0.370996, Final residual = 0.00140695, No Iterations 4
diagonal:  Solving for rho, Initial residual = 0, Final residual = 0, No Iterations 0
time step continuity errors : sum local = 9.54527e-09, global = -8.61091e-10, cumulative = 2.07709e-08
GAMG:  Solving for p_rgh, Initial residual = 0.000326873, Final residual = 8.40641e-07, No Iterations 5
diagonal:  Solving for rho, Initial residual = 0, Final residual = 0, No Iterations 0
time step continuity errors : sum local = 2.57812e-11, global = -6.22391e-13, cumulative = 2.07703e-08
DILUPBiCG:  Solving for k, Initial residual = 0.868511, Final residual = 1.17408e-09, No Iterations 2
DILUPBiCG:  Solving for Ux, Initial residual = 3.11453e-07, Final residual = 3.11453e-07, No Iterations 0
DILUPBiCG:  Solving for Uy, Initial residual = 9.06645e-07, Final residual = 9.06645e-07, No Iterations 0
DILUPBiCG:  Solving for O2, Initial residual = 0.00128677, Final residual = 1.51662e-10, No Iterations 2
max of O2 = 0.23301
min of O2 = 0.00475599
DILUPBiCG:  Solving for H2O, Initial residual = 0.0170149, Final residual = 2.14761e-09, No Iterations 2
max of H2O = 4.63368e-05
min of H2O = 0
DILUPBiCG:  Solving for CH4, Initial residual = 8.27042e-05, Final residual = 1.64936e-12, No Iterations 2
max of CH4 = 0.979581
min of CH4 = 0
DILUPBiCG:  Solving for CO2, Initial residual = 0.0170149, Final residual = 2.14761e-09, No Iterations 2
max of CO2 = 5.65987e-05
min of CO2 = 0
max of N2 = 0.76699
min of N2 = 0
DILUPBiCG:  Solving for hs, Initial residual = 0.0268047, Final residual = 2.93562e-09, No Iterations 2
GAMG:  Solving for p_rgh, Initial residual = 0.0265936, Final residual = 0.000249946, No Iterations 4
diagonal:  Solving for rho, Initial residual = 0, Final residual = 0, No Iterations 0
time step continuity errors : sum local = 7.73502e-09, global = 5.87326e-10, cumulative = 2.13576e-08
GAMG:  Solving for p_rgh, Initial residual = 0.000403421, Final residual = 9.77775e-07, No Iterations 5
diagonal:  Solving for rho, Initial residual = 0, Final residual = 0, No Iterations 0
time step continuity errors : sum local = 1.93478e-11, global = 7.36248e-13, cumulative = 2.13584e-08
DILUPBiCG:  Solving for k, Initial residual = 0.00574254, Final residual = 6.09949e-16, No Iterations 3
DILUPBiCG:  Solving for Ux, Initial residual = 1.71748e-06, Final residual = 1.43865e-11, No Iterations 1
DILUPBiCG:  Solving for Uy, Initial residual = 3.52205e-06, Final residual = 2.28223e-10, No Iterations 1
DILUPBiCG:  Solving for O2, Initial residual = 4.54612e-05, Final residual = 5.24001e-09, No Iterations 1
max of O2 = 0.23301
min of O2 = 0.00475595
DILUPBiCG:  Solving for H2O, Initial residual = 9.12567e-05, Final residual = 6.42706e-12, No Iterations 2
max of H2O = 4.63256e-05
min of H2O = 0
DILUPBiCG:  Solving for CH4, Initial residual = 4.25552e-05, Final residual = 3.34111e-09, No Iterations 1
max of CH4 = 0.979581
min of CH4 = 0
DILUPBiCG:  Solving for CO2, Initial residual = 9.12567e-05, Final residual = 6.42706e-12, No Iterations 2
max of CO2 = 5.65849e-05
min of CO2 = 0
max of N2 = 0.76699
min of N2 = 0
DILUPBiCG:  Solving for hs, Initial residual = 0.00426236, Final residual = 4.29773e-11, No Iterations 2
GAMG:  Solving for p_rgh, Initial residual = 0.00725307, Final residual = 2.55658e-05, No Iterations 4
diagonal:  Solving for rho, Initial residual = 0, Final residual = 0, No Iterations 0
time step continuity errors : sum local = 5.02251e-10, global = 1.39259e-10, cumulative = 2.14976e-08
GAMG:  Solving for p_rgh, Initial residual = 2.77045e-05, Final residual = 6.10869e-07, No Iterations 3
diagonal:  Solving for rho, Initial residual = 0, Final residual = 0, No Iterations 0
time step continuity errors : sum local = 1.08408e-11, global = -2.95787e-13, cumulative = 2.14973e-08
DILUPBiCG:  Solving for k, Initial residual = 0.000243435, Final residual = 7.56065e-12, No Iterations 2
ExecutionTime = 0.3 s  ClockTime = 1 s

Courant Number mean: 9.40758e-05 max: 0.00305741
deltaT = 0.00475978
faceSource patchSides output:
    sum(sides) for phi = 0.00063693
    sum(sides) for HRR_fu = -1.69296e-50
    sum(sides) for phiH = 0.0211319
    sum(sides) for phiHs = -3.51803e-06
    sum(sides) for phiHc = 0.0211344

faceSource patchOutlet output:
    sum(outlet) for phi = -1.72889e-06
    sum(outlet) for HRR_fu = -1.46594e-147
    sum(outlet) for phiH = -6.56459e-05
    sum(outlet) for phiHs = -8.27849e-06
    sum(outlet) for phiHc = -5.73674e-05

faceSource patchInlet output:
    sum(inlet) for phi = -0.0002
    sum(inlet) for HRR_fu = 10006.3
    sum(inlet) for phiH = 944.809
    sum(inlet) for phiHs = 0.00345437
    sum(inlet) for phiHc = 944.805

Calculating averages

Time = 0.0238882

diagonal:  Solving for rho, Initial residual = 0, Final residual = 0, No Iterations 0
DILUPBiCG:  Solving for Ux, Initial residual = 0.0425002, Final residual = 2.19218e-07, No Iterations 1
DILUPBiCG:  Solving for Uy, Initial residual = 0.0390973, Final residual = 2.50729e-10, No Iterations 2
DILUPBiCG:  Solving for O2, Initial residual = 0.0520846, Final residual = 2.20603e-16, No Iterations 3
max of O2 = 0.23301
min of O2 = 0.00475041
DILUPBiCG:  Solving for H2O, Initial residual = 0.0827027, Final residual = 3.04861e-16, No Iterations 3
max of H2O = 6.63974e-05
min of H2O = 0
DILUPBiCG:  Solving for CH4, Initial residual = 0.0491382, Final residual = 2.11733e-16, No Iterations 3
max of CH4 = 0.979602
min of CH4 = 0
DILUPBiCG:  Solving for CO2, Initial residual = 0.0827027, Final residual = 3.04861e-16, No Iterations 3
max of CO2 = 8.11019e-05
min of CO2 = 0
max of N2 = 0.76699
min of N2 = 0
DILUPBiCG:  Solving for hs, Initial residual = 0.0891483, Final residual = 2.49028e-15, No Iterations 3
GAMG:  Solving for p_rgh, Initial residual = 0.102057, Final residual = 0.00100327, No Iterations 4
diagonal:  Solving for rho, Initial residual = 0, Final residual = 0, No Iterations 0
time step continuity errors : sum local = 2.34763e-08, global = -6.51018e-10, cumulative = 2.08463e-08
GAMG:  Solving for p_rgh, Initial residual = 0.00107812, Final residual = 3.87989e-07, No Iterations 7
diagonal:  Solving for rho, Initial residual = 0, Final residual = 0, No Iterations 0
time step continuity errors : sum local = 8.67024e-12, global = -2.74722e-13, cumulative = 2.0846e-08
DILUPBiCG:  Solving for k, Initial residual = 0.854569, Final residual = 9.1458e-09, No Iterations 2
DILUPBiCG:  Solving for Ux, Initial residual = 4.04444e-07, Final residual = 4.04444e-07, No Iterations 0
DILUPBiCG:  Solving for Uy, Initial residual = 6.93839e-07, Final residual = 6.93839e-07, No Iterations 0
DILUPBiCG:  Solving for O2, Initial residual = 0.00141748, Final residual = 3.86694e-10, No Iterations 2
max of O2 = 0.23301
min of O2 = 0.00475025
DILUPBiCG:  Solving for H2O, Initial residual = 0.0153598, Final residual = 4.87108e-09, No Iterations 2
max of H2O = 7.13784e-05
min of H2O = 0
DILUPBiCG:  Solving for CH4, Initial residual = 9.31049e-05, Final residual = 2.95757e-12, No Iterations 2
max of CH4 = 0.979602
min of CH4 = 0
DILUPBiCG:  Solving for CO2, Initial residual = 0.0153598, Final residual = 4.87108e-09, No Iterations 2
max of CO2 = 8.7186e-05
min of CO2 = 0
max of N2 = 0.76699
min of N2 = 0
DILUPBiCG:  Solving for hs, Initial residual = 0.0206936, Final residual = 5.9688e-09, No Iterations 2
GAMG:  Solving for p_rgh, Initial residual = 0.0432685, Final residual = 0.00015958, No Iterations 5
diagonal:  Solving for rho, Initial residual = 0, Final residual = 0, No Iterations 0
time step continuity errors : sum local = 3.64266e-09, global = 2.87344e-10, cumulative = 2.11334e-08
GAMG:  Solving for p_rgh, Initial residual = 0.000684188, Final residual = 4.92517e-07, No Iterations 6
diagonal:  Solving for rho, Initial residual = 0, Final residual = 0, No Iterations 0
time step continuity errors : sum local = 3.39405e-12, global = 1.6007e-13, cumulative = 2.11335e-08
DILUPBiCG:  Solving for k, Initial residual = 0.00655685, Final residual = 2.47554e-09, No Iterations 2
DILUPBiCG:  Solving for Ux, Initial residual = 2.55678e-06, Final residual = 2.42007e-11, No Iterations 1
DILUPBiCG:  Solving for Uy, Initial residual = 4.96365e-06, Final residual = 4.3143e-10, No Iterations 1
DILUPBiCG:  Solving for O2, Initial residual = 6.38726e-05, Final residual = 9.49513e-09, No Iterations 1
max of O2 = 0.23301
min of O2 = 0.00475021
DILUPBiCG:  Solving for H2O, Initial residual = 0.000116158, Final residual = 1.80868e-11, No Iterations 2
max of H2O = 7.13581e-05
min of H2O = 0
DILUPBiCG:  Solving for CH4, Initial residual = 5.92835e-05, Final residual = 5.83621e-09, No Iterations 1
max of CH4 = 0.979602
min of CH4 = 0
DILUPBiCG:  Solving for CO2, Initial residual = 0.000116158, Final residual = 1.80868e-11, No Iterations 2
max of CO2 = 8.71611e-05
min of CO2 = 0
max of N2 = 0.76699
min of N2 = 0
DILUPBiCG:  Solving for hs, Initial residual = 0.00276509, Final residual = 8.44482e-11, No Iterations 2
GAMG:  Solving for p_rgh, Initial residual = 0.0210775, Final residual = 8.6983e-05, No Iterations 4
diagonal:  Solving for rho, Initial residual = 0, Final residual = 0, No Iterations 0
time step continuity errors : sum local = 5.9519e-10, global = 1.65522e-10, cumulative = 2.1299e-08
GAMG:  Solving for p_rgh, Initial residual = 0.000126078, Final residual = 7.67474e-07, No Iterations 4
diagonal:  Solving for rho, Initial residual = 0, Final residual = 0, No Iterations 0
time step continuity errors : sum local = 3.5482e-12, global = 5.49278e-13, cumulative = 2.12996e-08
DILUPBiCG:  Solving for k, Initial residual = 0.000236571, Final residual = 2.93086e-12, No Iterations 2
ExecutionTime = 0.38 s  ClockTime = 1 s

Courant Number mean: 0.000118391 max: 0.00362062
deltaT = 0.00568103
faceSource patchSides output:
    sum(sides) for phi = 0.000622438
    sum(sides) for HRR_fu = -1.06232e-48
    sum(sides) for phiH = 0.0206539
    sum(sides) for phiHs = -6.3286e-07
    sum(sides) for phiHc = 0.0206536

faceSource patchOutlet output:
    sum(outlet) for phi = -2.05889e-06
    sum(outlet) for HRR_fu = -1.57636e-143
    sum(outlet) for phiH = -7.88889e-05
    sum(outlet) for phiHs = -1.05714e-05
    sum(outlet) for phiHc = -6.83176e-05

faceSource patchInlet output:
    sum(inlet) for phi = -0.0002
    sum(inlet) for HRR_fu = 10006.3
    sum(inlet) for phiH = 944.796
    sum(inlet) for phiHs = 0.00532181
    sum(inlet) for phiHc = 944.79

Calculating averages

Time = 0.0295692

diagonal:  Solving for rho, Initial residual = 0, Final residual = 0, No Iterations 0
DILUPBiCG:  Solving for Ux, Initial residual = 0.043068, Final residual = 9.56246e-08, No Iterations 1
DILUPBiCG:  Solving for Uy, Initial residual = 0.0578047, Final residual = 5.07423e-10, No Iterations 2
DILUPBiCG:  Solving for O2, Initial residual = 0.0506552, Final residual = 4.87161e-16, No Iterations 3
max of O2 = 0.23301
min of O2 = 0.00474338
DILUPBiCG:  Solving for H2O, Initial residual = 0.0800899, Final residual = 6.74118e-16, No Iterations 3
max of H2O = 0.000101184
min of H2O = 0
DILUPBiCG:  Solving for CH4, Initial residual = 0.0471529, Final residual = 4.62628e-16, No Iterations 3
max of CH4 = 0.979626
min of CH4 = 0
DILUPBiCG:  Solving for CO2, Initial residual = 0.0800899, Final residual = 6.74118e-16, No Iterations 3
max of CO2 = 0.000123592
min of CO2 = 0
max of N2 = 0.76699
min of N2 = 0
DILUPBiCG:  Solving for hs, Initial residual = 0.0839357, Final residual = 2.94316e-15, No Iterations 3
GAMG:  Solving for p_rgh, Initial residual = 0.664657, Final residual = 0.0049324, No Iterations 4
diagonal:  Solving for rho, Initial residual = 0, Final residual = 0, No Iterations 0
time step continuity errors : sum local = 2.315e-08, global = -2.04179e-09, cumulative = 1.92578e-08
GAMG:  Solving for p_rgh, Initial residual = 0.00161496, Final residual = 3.56909e-07, No Iterations 7
diagonal:  Solving for rho, Initial residual = 0, Final residual = 0, No Iterations 0
time step continuity errors : sum local = 5.37584e-12, global = -3.83004e-13, cumulative = 1.92574e-08
DILUPBiCG:  Solving for k, Initial residual = 0.841634, Final residual = 7.15733e-13, No Iterations 3
DILUPBiCG:  Solving for Ux, Initial residual = 3.62096e-07, Final residual = 3.62096e-07, No Iterations 0
DILUPBiCG:  Solving for Uy, Initial residual = 9.34737e-07, Final residual = 9.34737e-07, No Iterations 0
DILUPBiCG:  Solving for O2, Initial residual = 0.00159305, Final residual = 1.44252e-09, No Iterations 2
max of O2 = 0.23301
min of O2 = 0.00474315
DILUPBiCG:  Solving for H2O, Initial residual = 0.0143318, Final residual = 9.56935e-17, No Iterations 3
max of H2O = 0.000108253
min of H2O = 0
DILUPBiCG:  Solving for CH4, Initial residual = 0.000108118, Final residual = 5.67809e-12, No Iterations 2
[...]
GAMG:  Solving for p_rgh, Initial residual = 0.000855547, Final residual = 5.83794e-07, No Iterations 6
diagonal:  Solving for rho, Initial residual = 0, Final residual = 0, No Iterations 0
time step continuity errors : sum local = 8.45274e-08, global = 5.32865e-09, cumulative = 0.000337836
DILUPBiCG:  Solving for k, Initial residual = 0.000779501, Final residual = 9.04977e-09, No Iterations 7
DILUPBiCG:  Solving for Ux, Initial residual = 0.000237951, Final residual = 7.7541e-08, No Iterations 4
DILUPBiCG:  Solving for Uy, Initial residual = 0.000323302, Final residual = 8.94258e-08, No Iterations 4
DILUPBiCG:  Solving for O2, Initial residual = 0.00104816, Final residual = 9.47844e-09, No Iterations 6
max of O2 = 0.23301
min of O2 = 0.000605805
DILUPBiCG:  Solving for H2O, Initial residual = 0.00106736, Final residual = 1.67625e-09, No Iterations 8
max of H2O = 0.0947263
min of H2O = 0
DILUPBiCG:  Solving for CH4, Initial residual = 0.00251092, Final residual = 5.5986e-09, No Iterations 7
max of CH4 = 0.983115
min of CH4 = -1.26613e-11
DILUPBiCG:  Solving for CO2, Initial residual = 0.00106736, Final residual = 1.67625e-09, No Iterations 8
max of CO2 = 0.115705
min of CO2 = 0
max of N2 = 0.76699
min of N2 = 0
DILUPBiCG:  Solving for hs, Initial residual = 0.00106885, Final residual = 1.6754e-09, No Iterations 8
GAMG:  Solving for p_rgh, Initial residual = 0.0106255, Final residual = 6.06402e-05, No Iterations 3
diagonal:  Solving for rho, Initial residual = 0, Final residual = 0, No Iterations 0
time step continuity errors : sum local = 8.51043e-06, global = -1.17792e-06, cumulative = 0.000336658
GAMG:  Solving for p_rgh, Initial residual = 0.00050495, Final residual = 3.49017e-07, No Iterations 5
diagonal:  Solving for rho, Initial residual = 0, Final residual = 0, No Iterations 0
time step continuity errors : sum local = 4.91715e-08, global = -2.85424e-09, cumulative = 0.000336655
DILUPBiCG:  Solving for k, Initial residual = 0.000563971, Final residual = 7.84367e-09, No Iterations 6
ExecutionTime = 6.43 s  ClockTime = 14 s

Courant Number mean: 0.195041 max: 4.32249
deltaT = 0.0222222
faceSource patchSides output:
    sum(sides) for phi = -0.0740261
    sum(sides) for HRR_fu = -0.00151909
    sum(sides) for phiH = -5.7074
    sum(sides) for phiHs = 9.3404
    sum(sides) for phiHc = -15.0464

faceSource patchOutlet output:
    sum(outlet) for phi = 0.0685881
    sum(outlet) for HRR_fu = -0.0827565
    sum(outlet) for phiH = -3714.15
    sum(outlet) for phiHs = 9945.15
    sum(outlet) for phiHc = -13659.8

faceSource patchInlet output:
    sum(inlet) for phi = -0.0002
    sum(inlet) for HRR_fu = 10006.3
    sum(inlet) for phiH = 947.573
    sum(inlet) for phiHs = 4.01816
    sum(inlet) for phiHc = 943.555

Calculating averages

Time = 2.95556

diagonal:  Solving for rho, Initial residual = 0, Final residual = 0, No Iterations 0
DILUPBiCG:  Solving for Ux, Initial residual = 0.0214912, Final residual = 6.46883e-07, No Iterations 7
DILUPBiCG:  Solving for Uy, Initial residual = 0.0130919, Final residual = 6.41447e-07, No Iterations 6
DILUPBiCG:  Solving for O2, Initial residual = 0.0111947, Final residual = 7.80232e-09, No Iterations 9
max of O2 = 0.23301
min of O2 = 0.000610844
DILUPBiCG:  Solving for H2O, Initial residual = 0.0113557, Final residual = 2.36844e-09, No Iterations 10
max of H2O = 0.0946226
min of H2O = 0
DILUPBiCG:  Solving for CH4, Initial residual = 0.00183593, Final residual = 3.85598e-09, No Iterations 7
max of CH4 = 0.98311
min of CH4 = -9.87613e-12
DILUPBiCG:  Solving for CO2, Initial residual = 0.0113557, Final residual = 2.36844e-09, No Iterations 10
max of CO2 = 0.115578
min of CO2 = 0
max of N2 = 0.76699
min of N2 = 0
DILUPBiCG:  Solving for hs, Initial residual = 0.0113597, Final residual = 2.36829e-09, No Iterations 10
GAMG:  Solving for p_rgh, Initial residual = 0.0475366, Final residual = 0.000217551, No Iterations 3
diagonal:  Solving for rho, Initial residual = 0, Final residual = 0, No Iterations 0
time step continuity errors : sum local = 3.18105e-05, global = 6.02645e-06, cumulative = 0.000342681
GAMG:  Solving for p_rgh, Initial residual = 0.00659246, Final residual = 4.84804e-07, No Iterations 7
diagonal:  Solving for rho, Initial residual = 0, Final residual = 0, No Iterations 0
time step continuity errors : sum local = 6.89468e-08, global = -4.95023e-09, cumulative = 0.000342676
DILUPBiCG:  Solving for k, Initial residual = 0.00546004, Final residual = 4.85259e-09, No Iterations 8
DILUPBiCG:  Solving for Ux, Initial residual = 0.000622404, Final residual = 4.59415e-07, No Iterations 4
DILUPBiCG:  Solving for Uy, Initial residual = 0.00101668, Final residual = 3.05109e-07, No Iterations 5
DILUPBiCG:  Solving for O2, Initial residual = 0.0020274, Final residual = 6.80549e-09, No Iterations 8
max of O2 = 0.23301
min of O2 = 0.000606099
DILUPBiCG:  Solving for H2O, Initial residual = 0.00204569, Final residual = 1.41675e-09, No Iterations 10
max of H2O = 0.0948039
min of H2O = 0
DILUPBiCG:  Solving for CH4, Initial residual = 0.00180479, Final residual = 9.84002e-09, No Iterations 6
max of CH4 = 0.983119
min of CH4 = -1.00805e-11
DILUPBiCG:  Solving for CO2, Initial residual = 0.00204569, Final residual = 1.41675e-09, No Iterations 10
max of CO2 = 0.115799
min of CO2 = 0
max of N2 = 0.76699
min of N2 = 0
DILUPBiCG:  Solving for hs, Initial residual = 0.00204759, Final residual = 1.42736e-09, No Iterations 10
GAMG:  Solving for p_rgh, Initial residual = 0.0174012, Final residual = 4.99218e-05, No Iterations 4
diagonal:  Solving for rho, Initial residual = 0, Final residual = 0, No Iterations 0
time step continuity errors : sum local = 7.0788e-06, global = -1.09187e-07, cumulative = 0.000342567
GAMG:  Solving for p_rgh, Initial residual = 0.000931025, Final residual = 5.60544e-07, No Iterations 6
diagonal:  Solving for rho, Initial residual = 0, Final residual = 0, No Iterations 0
time step continuity errors : sum local = 8.13331e-08, global = 5.18102e-09, cumulative = 0.000342572
DILUPBiCG:  Solving for k, Initial residual = 0.000825802, Final residual = 2.62908e-09, No Iterations 7
DILUPBiCG:  Solving for Ux, Initial residual = 0.00024387, Final residual = 2.53031e-08, No Iterations 5
DILUPBiCG:  Solving for Uy, Initial residual = 0.000320451, Final residual = 8.5797e-08, No Iterations 5
DILUPBiCG:  Solving for O2, Initial residual = 0.00129701, Final residual = 4.97336e-09, No Iterations 7
max of O2 = 0.23301
min of O2 = 0.000611798
DILUPBiCG:  Solving for H2O, Initial residual = 0.00130992, Final residual = 4.10185e-09, No Iterations 8
max of H2O = 0.0949423
min of H2O = 0
DILUPBiCG:  Solving for CH4, Initial residual = 0.00228981, Final residual = 1.52484e-09, No Iterations 6
max of CH4 = 0.983108
min of CH4 = -1.01519e-11
DILUPBiCG:  Solving for CO2, Initial residual = 0.00130992, Final residual = 4.10185e-09, No Iterations 8
max of CO2 = 0.115968
min of CO2 = 0
max of N2 = 0.76699
min of N2 = 0
DILUPBiCG:  Solving for hs, Initial residual = 0.0013114, Final residual = 4.12666e-09, No Iterations 8
GAMG:  Solving for p_rgh, Initial residual = 0.0121672, Final residual = 7.08878e-05, No Iterations 3
diagonal:  Solving for rho, Initial residual = 0, Final residual = 0, No Iterations 0
time step continuity errors : sum local = 9.93773e-06, global = -1.60749e-06, cumulative = 0.000340965
GAMG:  Solving for p_rgh, Initial residual = 0.000600699, Final residual = 4.25856e-07, No Iterations 4
diagonal:  Solving for rho, Initial residual = 0, Final residual = 0, No Iterations 0
time step continuity errors : sum local = 5.9975e-08, global = -1.30579e-08, cumulative = 0.000340952
DILUPBiCG:  Solving for k, Initial residual = 0.000746448, Final residual = 6.42701e-09, No Iterations 7
ExecutionTime = 6.48 s  ClockTime = 14 s

Courant Number mean: 0.195369 max: 4.29957
deltaT = 0.0222222
faceSource patchSides output:
    sum(sides) for phi = -0.0740871
    sum(sides) for HRR_fu = -0.00165646
    sum(sides) for phiH = -6.60552
    sum(sides) for phiHs = 11.7825
    sum(sides) for phiHc = -18.3863

faceSource patchOutlet output:
    sum(outlet) for phi = 0.0687578
    sum(outlet) for HRR_fu = -0.0792847
    sum(outlet) for phiH = -3600.08
    sum(outlet) for phiHs = 9843.4
    sum(outlet) for phiHc = -13443

faceSource patchInlet output:
    sum(inlet) for phi = -0.0002
    sum(inlet) for HRR_fu = 10006.3
    sum(inlet) for phiH = 947.57
    sum(inlet) for phiHs = 4.01378
    sum(inlet) for phiHc = 943.556

Calculating averages

Time = 2.97778

diagonal:  Solving for rho, Initial residual = 0, Final residual = 0, No Iterations 0
DILUPBiCG:  Solving for Ux, Initial residual = 0.0214635, Final residual = 7.20011e-07, No Iterations 7
DILUPBiCG:  Solving for Uy, Initial residual = 0.0130855, Final residual = 6.78436e-07, No Iterations 7
DILUPBiCG:  Solving for O2, Initial residual = 0.0110035, Final residual = 3.62068e-09, No Iterations 9
max of O2 = 0.23301
min of O2 = 0.00061267
DILUPBiCG:  Solving for H2O, Initial residual = 0.0111778, Final residual = 4.73412e-09, No Iterations 10
max of H2O = 0.0948086
min of H2O = 0
DILUPBiCG:  Solving for CH4, Initial residual = 0.00203143, Final residual = 4.35273e-09, No Iterations 7
max of CH4 = 0.983112
min of CH4 = -8.82068e-12
DILUPBiCG:  Solving for CO2, Initial residual = 0.0111778, Final residual = 4.73412e-09, No Iterations 10
max of CO2 = 0.115805
min of CO2 = 0
max of N2 = 0.76699
min of N2 = 0
DILUPBiCG:  Solving for hs, Initial residual = 0.0111817, Final residual = 4.73089e-09, No Iterations 10
GAMG:  Solving for p_rgh, Initial residual = 0.0468828, Final residual = 0.000202215, No Iterations 3
diagonal:  Solving for rho, Initial residual = 0, Final residual = 0, No Iterations 0
time step continuity errors : sum local = 2.96101e-05, global = 6.86872e-06, cumulative = 0.000347821
GAMG:  Solving for p_rgh, Initial residual = 0.00634063, Final residual = 4.11545e-07, No Iterations 7
diagonal:  Solving for rho, Initial residual = 0, Final residual = 0, No Iterations 0
time step continuity errors : sum local = 5.87163e-08, global = -3.72036e-09, cumulative = 0.000347817
DILUPBiCG:  Solving for k, Initial residual = 0.00515062, Final residual = 3.10806e-09, No Iterations 8
DILUPBiCG:  Solving for Ux, Initial residual = 0.000601333, Final residual = 2.47529e-07, No Iterations 5
DILUPBiCG:  Solving for Uy, Initial residual = 0.00100735, Final residual = 4.44881e-07, No Iterations 5
DILUPBiCG:  Solving for O2, Initial residual = 0.00183983, Final residual = 3.83915e-09, No Iterations 8
max of O2 = 0.23301
min of O2 = 0.000615824
DILUPBiCG:  Solving for H2O, Initial residual = 0.00187941, Final residual = 7.21761e-10, No Iterations 9
max of H2O = 0.0950483
min of H2O = 0
DILUPBiCG:  Solving for CH4, Initial residual = 0.00239848, Final residual = 4.19124e-09, No Iterations 7
max of CH4 = 0.983102
min of CH4 = -8.8792e-12
DILUPBiCG:  Solving for CO2, Initial residual = 0.00187941, Final residual = 7.21761e-10, No Iterations 9
max of CO2 = 0.116098
min of CO2 = 0
max of N2 = 0.76699
min of N2 = 0
DILUPBiCG:  Solving for hs, Initial residual = 0.00188128, Final residual = 7.21507e-10, No Iterations 9
GAMG:  Solving for p_rgh, Initial residual = 0.015491, Final residual = 0.000112195, No Iterations 3
diagonal:  Solving for rho, Initial residual = 0, Final residual = 0, No Iterations 0
time step continuity errors : sum local = 1.5932e-05, global = -2.0179e-06, cumulative = 0.000345799
GAMG:  Solving for p_rgh, Initial residual = 0.000887911, Final residual = 5.11752e-07, No Iterations 6
diagonal:  Solving for rho, Initial residual = 0, Final residual = 0, No Iterations 0
time step continuity errors : sum local = 7.40834e-08, global = 4.62166e-09, cumulative = 0.000345804
DILUPBiCG:  Solving for k, Initial residual = 0.000696037, Final residual = 7.27192e-10, No Iterations 8
DILUPBiCG:  Solving for Ux, Initial residual = 0.000228547, Final residual = 4.23513e-08, No Iterations 6
DILUPBiCG:  Solving for Uy, Initial residual = 0.000290188, Final residual = 9.43366e-08, No Iterations 4
DILUPBiCG:  Solving for O2, Initial residual = 0.00104003, Final residual = 6.70922e-09, No Iterations 6
max of O2 = 0.23301
min of O2 = 0.00060966
DILUPBiCG:  Solving for H2O, Initial residual = 0.00104997, Final residual = 4.23253e-09, No Iterations 7
max of H2O = 0.0949193
min of H2O = 0
DILUPBiCG:  Solving for CH4, Initial residual = 0.00296295, Final residual = 4.6513e-09, No Iterations 6
max of CH4 = 0.983115
min of CH4 = -8.88323e-12
DILUPBiCG:  Solving for CO2, Initial residual = 0.00104997, Final residual = 4.23253e-09, No Iterations 7
max of CO2 = 0.11594
min of CO2 = 0
max of N2 = 0.76699
min of N2 = 0
DILUPBiCG:  Solving for hs, Initial residual = 0.00105128, Final residual = 4.25673e-09, No Iterations 7
GAMG:  Solving for p_rgh, Initial residual = 0.00987786, Final residual = 6.62215e-05, No Iterations 3
diagonal:  Solving for rho, Initial residual = 0, Final residual = 0, No Iterations 0
time step continuity errors : sum local = 9.25722e-06, global = -1.24143e-06, cumulative = 0.000344562
GAMG:  Solving for p_rgh, Initial residual = 0.000519875, Final residual = 6.97201e-07, No Iterations 5
diagonal:  Solving for rho, Initial residual = 0, Final residual = 0, No Iterations 0
time step continuity errors : sum local = 9.84312e-08, global = -1.26443e-09, cumulative = 0.000344561
DILUPBiCG:  Solving for k, Initial residual = 0.000567831, Final residual = 1.76925e-09, No Iterations 7
ExecutionTime = 6.53 s  ClockTime = 14 s

Courant Number mean: 0.195776 max: 4.30729
deltaT = 0.0222222
faceSource patchSides output:
    sum(sides) for phi = -0.074248
    sum(sides) for HRR_fu = -0.00181411
    sum(sides) for phiH = -7.7367
    sum(sides) for phiHs = 14.8524
    sum(sides) for phiHc = -22.5873

faceSource patchOutlet output:
    sum(outlet) for phi = 0.0693621
    sum(outlet) for HRR_fu = -0.0817806
    sum(outlet) for phiH = -3704.39
    sum(outlet) for phiHs = 9790.17
    sum(outlet) for phiHc = -13495.7

faceSource patchInlet output:
    sum(inlet) for phi = -0.0002
    sum(inlet) for HRR_fu = 10006.3
    sum(inlet) for phiH = 947.567
    sum(inlet) for phiHs = 4.01111
    sum(inlet) for phiHc = 943.556

Calculating averages

Time = 3

diagonal:  Solving for rho, Initial residual = 0, Final residual = 0, No Iterations 0
DILUPBiCG:  Solving for Ux, Initial residual = 0.0209105, Final residual = 8.76737e-07, No Iterations 7
DILUPBiCG:  Solving for Uy, Initial residual = 0.0134051, Final residual = 9.58674e-07, No Iterations 8
DILUPBiCG:  Solving for O2, Initial residual = 0.0108976, Final residual = 4.8815e-09, No Iterations 9
max of O2 = 0.23301
min of O2 = 0.000614119
DILUPBiCG:  Solving for H2O, Initial residual = 0.0110466, Final residual = 8.04851e-09, No Iterations 9
max of H2O = 0.0950724
min of H2O = 0
DILUPBiCG:  Solving for CH4, Initial residual = 0.00198262, Final residual = 8.55362e-09, No Iterations 6
max of CH4 = 0.983116
min of CH4 = -7.95675e-12
DILUPBiCG:  Solving for CO2, Initial residual = 0.0110466, Final residual = 8.04851e-09, No Iterations 9
max of CO2 = 0.116127
min of CO2 = 0
max of N2 = 0.76699
min of N2 = 0
DILUPBiCG:  Solving for hs, Initial residual = 0.0110503, Final residual = 8.15688e-09, No Iterations 9
GAMG:  Solving for p_rgh, Initial residual = 0.0467591, Final residual = 0.000227976, No Iterations 3
diagonal:  Solving for rho, Initial residual = 0, Final residual = 0, No Iterations 0
time step continuity errors : sum local = 3.3681e-05, global = 6.83331e-06, cumulative = 0.000351394
GAMG:  Solving for p_rgh, Initial residual = 0.00652972, Final residual = 5.53095e-07, No Iterations 7
diagonal:  Solving for rho, Initial residual = 0, Final residual = 0, No Iterations 0
time step continuity errors : sum local = 7.95517e-08, global = -4.78027e-09, cumulative = 0.000351389
DILUPBiCG:  Solving for k, Initial residual = 0.00486333, Final residual = 2.27696e-09, No Iterations 9
DILUPBiCG:  Solving for Ux, Initial residual = 0.000607641, Final residual = 6.60231e-07, No Iterations 4
DILUPBiCG:  Solving for Uy, Initial residual = 0.00105795, Final residual = 5.11653e-07, No Iterations 5
DILUPBiCG:  Solving for O2, Initial residual = 0.00177647, Final residual = 5.7486e-09, No Iterations 8
max of O2 = 0.23301
min of O2 = 0.000608994
DILUPBiCG:  Solving for H2O, Initial residual = 0.00179178, Final residual = 6.44926e-09, No Iterations 8
max of H2O = 0.0951687
min of H2O = 0
DILUPBiCG:  Solving for CH4, Initial residual = 0.00279072, Final residual = 4.98205e-10, No Iterations 8
max of CH4 = 0.983127
min of CH4 = -8.00359e-12
DILUPBiCG:  Solving for CO2, Initial residual = 0.00179178, Final residual = 6.44926e-09, No Iterations 8
max of CO2 = 0.116245
min of CO2 = 0
max of N2 = 0.76699
min of N2 = 0
DILUPBiCG:  Solving for hs, Initial residual = 0.00179431, Final residual = 6.42195e-09, No Iterations 8
GAMG:  Solving for p_rgh, Initial residual = 0.0149873, Final residual = 0.000139812, No Iterations 3
diagonal:  Solving for rho, Initial residual = 0, Final residual = 0, No Iterations 0
time step continuity errors : sum local = 1.99378e-05, global = -2.29471e-06, cumulative = 0.000349095
GAMG:  Solving for p_rgh, Initial residual = 0.000867048, Final residual = 5.90662e-07, No Iterations 6
diagonal:  Solving for rho, Initial residual = 0, Final residual = 0, No Iterations 0
time step continuity errors : sum local = 8.63664e-08, global = 5.26451e-09, cumulative = 0.0003491
DILUPBiCG:  Solving for k, Initial residual = 0.000713255, Final residual = 9.84293e-09, No Iterations 6
DILUPBiCG:  Solving for Ux, Initial residual = 0.000233548, Final residual = 1.16245e-08, No Iterations 5
DILUPBiCG:  Solving for Uy, Initial residual = 0.000288409, Final residual = 4.95786e-08, No Iterations 5
DILUPBiCG:  Solving for O2, Initial residual = 0.00100347, Final residual = 1.83325e-09, No Iterations 7
max of O2 = 0.23301
min of O2 = 0.000615578
DILUPBiCG:  Solving for H2O, Initial residual = 0.00101729, Final residual = 1.39142e-10, No Iterations 9
max of H2O = 0.0952535
min of H2O = 0
DILUPBiCG:  Solving for CH4, Initial residual = 0.00317812, Final residual = 1.00871e-09, No Iterations 6
max of CH4 = 0.983114
min of CH4 = -8.016e-12
DILUPBiCG:  Solving for CO2, Initial residual = 0.00101729, Final residual = 1.39142e-10, No Iterations 9
max of CO2 = 0.116348
min of CO2 = 0
max of N2 = 0.76699
min of N2 = 0
DILUPBiCG:  Solving for hs, Initial residual = 0.001019, Final residual = 1.37657e-10, No Iterations 9
GAMG:  Solving for p_rgh, Initial residual = 0.0103643, Final residual = 5.15727e-05, No Iterations 3
diagonal:  Solving for rho, Initial residual = 0, Final residual = 0, No Iterations 0
time step continuity errors : sum local = 7.29682e-06, global = -1.1884e-06, cumulative = 0.000347912
GAMG:  Solving for p_rgh, Initial residual = 0.000476144, Final residual = 3.97835e-07, No Iterations 4
diagonal:  Solving for rho, Initial residual = 0, Final residual = 0, No Iterations 0
time step continuity errors : sum local = 5.65152e-08, global = -1.12992e-08, cumulative = 0.0003479
DILUPBiCG:  Solving for k, Initial residual = 0.000700016, Final residual = 1.0932e-09, No Iterations 8
ExecutionTime = 6.58 s  ClockTime = 14 s +

faceSource patchSides output:
    sum(sides) for phi = -0.0740059
    sum(sides) for HRR_fu = -0.00198624
    sum(sides) for phiH = -9.09362
    sum(sides) for phiHs = 18.6943
    sum(sides) for phiHc = -27.7854

faceSource patchOutlet output:
    sum(outlet) for phi = 0.0693147
    sum(outlet) for HRR_fu = -0.0763313
    sum(outlet) for phiH = -3563.52
    sum(outlet) for phiHs = 9685.9
    sum(outlet) for phiHc = -13249.4

faceSource patchInlet output:
    sum(inlet) for phi = -0.0002
    sum(inlet) for HRR_fu = 10006.3
    sum(inlet) for phiH = 947.564
    sum(inlet) for phiHs = 4.00738
    sum(inlet) for phiHc = 943.557

Calculating averages

End

Finalising parallel run
