/*---------------------------------------------------------------------------*\
| =========                 |                                                 |
| \\      /  F ield         | OpenFOAM: The Open Source CFD Toolbox           |
|  \\    /   O peration     | Version:  1.7.x                                 |
|   \\  /    A nd           | Web:      www.OpenFOAM.com                      |
|    \\/     M anipulation  |                                                 |
\*---------------------------------------------------------------------------*/
Build  : 1.7.x-868d5097761f
Exec   : fireFoam
Date   : May 24 2011
Time   : 15:57:15
Host   : wangyUbuntu
PID    : 6196
Case   : /home/wangy/OpenFOAM/wangy-1.7.x/run/fireFoam/testBatteryFireFOAM/counterFlowFlame2D
nProcs : 1
SigFpe : Enabling floating point exception trapping (FOAM_SIGFPE).

// * * * * * * * * * * * * * * * * * * * * * * * * * * * * * * * * * * * * * //
FireFOAM Build Version:  75224d2d3d657d60a93020c7c07f76e3a2c45fe8
FireFOAM Build Time Stamp:  Tue May 24 13:54:54 EDT 2011
****************************************************
Create time

Create mesh for time = 0


Reading g
Reading thermophysical properties

Selecting thermodynamics package hsPsiMixtureThermoNew<singleStepReactingMixture<gasThermoPhysics>>
Selecting chemistryReader foamChemistryReader
Fuel heat of combustion :5.00314e+07
Mole based specieStoichCoeffs: 5(-2 2 -1 1 7.52)
stoichiometric air-fuel ratio :17.1204
stoichiometric oxygen-fuel ratio :3.98918
Max products: 5(0 0.123944 0 0.151392 0.724664)
mass based specieStoichCoeffs: 5(-3.98918 2.2459 -1 2.74329 13.1312)
Creating component thermo properties:
    multi-component carrier - 5 species
    liquids - 1 components
    solids - 0 components
Reading field p_rgh

Reading field U

Reading/calculating face flux field phi

Creating turbulence model

Selecting turbulence model type LESModel
Selecting LES turbulence model oneEqEddy
--> FOAM Warning : 
    From function cubeRootVolDelta::calcDelta()
    in file cubeRootVolDelta/cubeRootVolDelta.C at line 52
    Case is 2D, LES is not strictly applicable

oneEqEddyCoeffs
{
    ce              1.048;
    Prt             1;
    ck              0.094;
}

Creating combustion model

Selecting combustion model infinitelyFastChemistry
stoichiometric mixture fraction is = 0.0551866
Creating field DpDt

Calculating field g.h

Selecting radiationModel none
Creating pyrolysis model

Selecting pyrolysisModel none

Constructing reacting cloud
Constructing cloud functions
    none
Selecting DispersionModel none
Selecting DragModel SphereDrag
Selecting InjectionModel ConeInjection
    Constructing 2-D injection
Selecting pdfType RosinRammler
Selecting PatchInteractionModel StandardWallInteraction
Selecting SurfaceFilmModel ThermoSurfaceFilm
    Applying absorb interaction model
Selecting U IntegrationScheme Euler
Selecting HeatTransferModel RanzMarshall
Selecting T IntegrationScheme Analytical
Selecting CompositionModel SinglePhaseMixture
Selecting PhaseChangeModel LiquidEvaporation

Constructing surface film model
Selecting surfaceFilmModel none
Courant Number mean: 0 max: 0.5

Starting time loop

Courant Number mean: 0 max: 0.961538
deltaT = 0.00192308
cellSource HRR:
    total cells  = 500
    total volume = 8e-07



Time = 0.00192308

diagonal:  Solving for rho, Initial residual = 0, Final residual = 0, No Iterations 0
smoothSolver:  Solving for Ux, Initial residual = 1, Final residual = 2.64538e-08, No Iterations 9
smoothSolver:  Solving for Uy, Initial residual = 0.0019401, Final residual = 9.84031e-08, No Iterations 5
smoothSolver:  Solving for O2, Initial residual = 1, Final residual = 2.11646e-08, No Iterations 7
max of O2 = 0.23301
min of O2 = 0
smoothSolver:  Solving for H2O, Initial residual = 0, Final residual = 0, No Iterations 0
max of H2O = 0
min of H2O = 0
smoothSolver:  Solving for CH4, Initial residual = 1, Final residual = 2.11646e-08, No Iterations 7
max of CH4 = 1
min of CH4 = 0
smoothSolver:  Solving for CO2, Initial residual = 0, Final residual = 0, No Iterations 0
max of CO2 = 0
min of CO2 = 0
max of N2 = 0.76699
min of N2 = 0
DILUPBiCG:  Solving for hs, Initial residual = 1, Final residual = 2.85253e-09, No Iterations 3
GAMG:  Solving for p_rgh, Initial residual = 1, Final residual = 0.00412053, No Iterations 8
diagonal:  Solving for rho, Initial residual = 0, Final residual = 0, No Iterations 0
time step continuity errors : sum local = 8.74965e-05, global = 4.09039e-05, cumulative = 4.09039e-05
GAMG:  Solving for p_rgh, Initial residual = 0.0343357, Final residual = 9.44575e-08, No Iterations 19
diagonal:  Solving for rho, Initial residual = 0, Final residual = 0, No Iterations 0
time step continuity errors : sum local = 1.62732e-08, global = 4.10859e-09, cumulative = 4.0908e-05
smoothSolver:  Solving for k, Initial residual = 1, Final residual = 4.90398e-08, No Iterations 12
ExecutionTime = 0.03 s  ClockTime = 0 s

Courant Number mean: 0.176659 max: 0.961541
deltaT = 0.00192308
Time = 0.00384615

diagonal:  Solving for rho, Initial residual = 0, Final residual = 0, No Iterations 0
smoothSolver:  Solving for Ux, Initial residual = 0.333758, Final residual = 2.67945e-08, No Iterations 11
smoothSolver:  Solving for Uy, Initial residual = 0.319347, Final residual = 3.45217e-08, No Iterations 10
smoothSolver:  Solving for O2, Initial residual = 0.408879, Final residual = 4.34827e-08, No Iterations 7
max of O2 = 0.23301
min of O2 = 0
smoothSolver:  Solving for H2O, Initial residual = 1, Final residual = 9.77968e-08, No Iterations 4
max of H2O = 0.0462618
min of H2O = -1.058e-06
smoothSolver:  Solving for CH4, Initial residual = 0.161814, Final residual = 1.18802e-08, No Iterations 7
max of CH4 = 1
min of CH4 = 0
smoothSolver:  Solving for CO2, Initial residual = 1, Final residual = 8.0078e-08, No Iterations 4
max of CO2 = 0.056507
min of CO2 = -1.29232e-06
max of N2 = 0.76699
min of N2 = 0
DILUPBiCG:  Solving for hs, Initial residual = 0.997955, Final residual = 3.9025e-08, No Iterations 4
GAMG:  Solving for p_rgh, Initial residual = 0.379451, Final residual = 0.00165008, No Iterations 8
diagonal:  Solving for rho, Initial residual = 0, Final residual = 0, No Iterations 0
time step continuity errors : sum local = 0.000288998, global = 0.000116478, cumulative = 0.000157386
GAMG:  Solving for p_rgh, Initial residual = 0.0493623, Final residual = 7.02399e-08, No Iterations 19
diagonal:  Solving for rho, Initial residual = 0, Final residual = 0, No Iterations 0
time step continuity errors : sum local = 3.96258e-08, global = 8.72217e-09, cumulative = 0.000157394
smoothSolver:  Solving for k, Initial residual = 0.977043, Final residual = 8.20606e-08, No Iterations 47
ExecutionTime = 0.04 s  ClockTime = 0 s

Courant Number mean: 1.04076 max: 6.47247
deltaT = 0.000295858
Time = 0.00414201

diagonal:  Solving for rho, Initial residual = 0, Final residual = 0, No Iterations 0
smoothSolver:  Solving for Ux, Initial residual = 0.101333, Final residual = 3.01224e-08, No Iterations 9
smoothSolver:  Solving for Uy, Initial residual = 0.0629867, Final residual = 4.95538e-08, No Iterations 8
smoothSolver:  Solving for O2, Initial residual = 0.087569, Final residual = 1.82533e-08, No Iterations 8
max of O2 = 0.23301
min of O2 = 0
smoothSolver:  Solving for H2O, Initial residual = 0.000195975, Final residual = 6.67917e-08, No Iterations 4
max of H2O = 0.0572061
min of H2O = -1.05806e-06
smoothSolver:  Solving for CH4, Initial residual = 0.0382121, Final residual = 8.54332e-08, No Iterations 7
max of CH4 = 1
min of CH4 = 0
smoothSolver:  Solving for CO2, Initial residual = 0.000221325, Final residual = 7.5429e-08, No Iterations 4
max of CO2 = 0.0698751
min of CO2 = -1.29238e-06
max of N2 = 0.766997
min of N2 = 0
DILUPBiCG:  Solving for hs, Initial residual = 0.150481, Final residual = 3.55326e-09, No Iterations 4
GAMG:  Solving for p_rgh, Initial residual = 0.659341, Final residual = 0.00655595, No Iterations 7
diagonal:  Solving for rho, Initial residual = 0, Final residual = 0, No Iterations 0
time step continuity errors : sum local = 0.000229764, global = -5.92792e-05, cumulative = 9.8115e-05
GAMG:  Solving for p_rgh, Initial residual = 0.0348395, Final residual = 6.09537e-08, No Iterations 18
diagonal:  Solving for rho, Initial residual = 0, Final residual = 0, No Iterations 0
time step continuity errors : sum local = 1.00675e-08, global = -4.08629e-09, cumulative = 9.81109e-05
smoothSolver:  Solving for k, Initial residual = 0.739356, Final residual = 7.25821e-08, No Iterations 31
ExecutionTime = 0.06 s  ClockTime = 0 s

Courant Number mean: 0.305613 max: 2.31426
deltaT = 0.000127738
Time = 0.00426975

diagonal:  Solving for rho, Initial residual = 0, Final residual = 0, No Iterations 0
smoothSolver:  Solving for Ux, Initial residual = 0.157937, Final residual = 7.09108e-08, No Iterations 9
smoothSolver:  Solving for Uy, Initial residual = 0.122536, Final residual = 3.44197e-08, No Iterations 9
smoothSolver:  Solving for O2, Initial residual = 0.036682, Final residual = 1.70845e-08, No Iterations 7
max of O2 = 0.23301
min of O2 = 0
smoothSolver:  Solving for H2O, Initial residual = 0.00222151, Final residual = 8.96361e-08, No Iterations 5
max of H2O = 0.0752455
min of H2O = -1.05807e-06
smoothSolver:  Solving for CH4, Initial residual = 0.00721003, Final residual = 2.14294e-08, No Iterations 6
max of CH4 = 1
min of CH4 = 0
smoothSolver:  Solving for CO2, Initial residual = 0.00183, Final residual = 7.38389e-08, No Iterations 5
max of CO2 = 0.0919095
min of CO2 = -1.29239e-06
max of N2 = 0.766992
min of N2 = 0
DILUPBiCG:  Solving for hs, Initial residual = 0.0592863, Final residual = 1.75473e-08, No Iterations 4
GAMG:  Solving for p_rgh, Initial residual = 0.24243, Final residual = 0.00231217, No Iterations 7
diagonal:  Solving for rho, Initial residual = 0, Final residual = 0, No Iterations 0
time step continuity errors : sum local = 8.13792e-05, global = -2.13304e-05, cumulative = 7.67805e-05
GAMG:  Solving for p_rgh, Initial residual = 0.0186511, Final residual = 9.02376e-08, No Iterations 17
diagonal:  Solving for rho, Initial residual = 0, Final residual = 0, No Iterations 0
time step continuity errors : sum local = 7.96468e-09, global = 1.8035e-09, cumulative = 7.67823e-05
smoothSolver:  Solving for k, Initial residual = 0.5785, Final residual = 7.5277e-08, No Iterations 11
ExecutionTime = 0.07 s  ClockTime = 0 s

Courant Number mean: 0.218496 max: 2.10238
deltaT = 6.07307e-05
Time = 0.00433048

diagonal:  Solving for rho, Initial residual = 0, Final residual = 0, No Iterations 0
smoothSolver:  Solving for Ux, Initial residual = 0.12593, Final residual = 5.75684e-08, No Iterations 8
smoothSolver:  Solving for Uy, Initial residual = 0.102355, Final residual = 3.4587e-08, No Iterations 8
smoothSolver:  Solving for O2, Initial residual = 0.0203984, Final residual = 4.62606e-08, No Iterations 6
max of O2 = 0.23301
min of O2 = 0
smoothSolver:  Solving for H2O, Initial residual = 0.00929132, Final residual = 2.1867e-08, No Iterations 6
max of H2O = 0.0880106
min of H2O = -1.05807e-06
smoothSolver:  Solving for CH4, Initial residual = 0.00246551, Final residual = 1.00437e-08, No Iterations 5
max of CH4 = 1
min of CH4 = 0
smoothSolver:  Solving for CO2, Initial residual = 0.00804379, Final residual = 1.89309e-08, No Iterations 6
max of CO2 = 0.107502
min of CO2 = -1.29239e-06
max of N2 = 0.766992
min of N2 = 0
DILUPBiCG:  Solving for hs, Initial residual = 0.030069, Final residual = 6.51678e-09, No Iterations 4
GAMG:  Solving for p_rgh, Initial residual = 0.148298, Final residual = 0.00126222, No Iterations 7
diagonal:  Solving for rho, Initial residual = 0, Final residual = 0, No Iterations 0
time step continuity errors : sum local = 2.81653e-05, global = -7.63673e-06, cumulative = 6.91456e-05
GAMG:  Solving for p_rgh, Initial residual = 0.012978, Final residual = 5.40141e-08, No Iterations 16
diagonal:  Solving for rho, Initial residual = 0, Final residual = 0, No Iterations 0
time step continuity errors : sum local = 2.28453e-09, global = -9.67835e-10, cumulative = 6.91446e-05
smoothSolver:  Solving for k, Initial residual = 0.311098, Final residual = 1.78446e-08, No Iterations 7
ExecutionTime = 0.08 s  ClockTime = 0 s

Courant Number mean: 0.141878 max: 1.52928
deltaT = 3.96781e-05
Time = 0.00437016

diagonal:  Solving for rho, Initial residual = 0, Final residual = 0, No Iterations 0
smoothSolver:  Solving for Ux, Initial residual = 0.124232, Final residual = 1.7215e-08, No Iterations 8
smoothSolver:  Solving for Uy, Initial residual = 0.0975139, Final residual = 7.43931e-08, No Iterations 7
smoothSolver:  Solving for O2, Initial residual = 0.0107895, Final residual = 3.511e-08, No Iterations 6
max of O2 = 0.23301
min of O2 = 0
smoothSolver:  Solving for H2O, Initial residual = 0.00823352, Final residual = 2.79443e-08, No Iterations 6
max of H2O = 0.0983536
min of H2O = -1.05807e-06
smoothSolver:  Solving for CH4, Initial residual = 0.00153524, Final residual = 2.50277e-08, No Iterations 5
max of CH4 = 1
min of CH4 = 0
smoothSolver:  Solving for CO2, Initial residual = 0.0110273, Final residual = 3.74263e-08, No Iterations 6
max of CO2 = 0.120135
min of CO2 = -1.29239e-06
max of N2 = 0.766992
min of N2 = 0
DILUPBiCG:  Solving for hs, Initial residual = 0.0164436, Final residual = 2.88479e-09, No Iterations 4
GAMG:  Solving for p_rgh, Initial residual = 0.116368, Final residual = 0.000647994, No Iterations 6
diagonal:  Solving for rho, Initial residual = 0, Final residual = 0, No Iterations 0
time step continuity errors : sum local = 1.19061e-05, global = -5.63059e-06, cumulative = 6.3514e-05
GAMG:  Solving for p_rgh, Initial residual = 0.0302156, Final residual = 7.14476e-08, No Iterations 16
diagonal:  Solving for rho, Initial residual = 0, Final residual = 0, No Iterations 0
time step continuity errors : sum local = 1.15952e-09, global = 5.02965e-10, cumulative = 6.35145e-05
smoothSolver:  Solving for k, Initial residual = 0.132672, Final residual = 2.49386e-08, No Iterations 6
ExecutionTime = 0.09 s  ClockTime = 0 s

Courant Number mean: 0.104933 max: 1.10191
deltaT = 3.59857e-05
Time = 0.00440614

diagonal:  Solving for rho, Initial residual = 0, Final residual = 0, No Iterations 0
smoothSolver:  Solving for Ux, Initial residual = 0.0904333, Final residual = 1.43143e-08, No Iterations 8
smoothSolver:  Solving for Uy, Initial residual = 0.0677082, Final residual = 5.58861e-08, No Iterations 7
smoothSolver:  Solving for O2, Initial residual = 0.00588396, Final residual = 4.86061e-08, No Iterations 6
max of O2 = 0.23301
min of O2 = 0
smoothSolver:  Solving for H2O, Initial residual = 3.19018e-06, Final residual = 6.05907e-08, No Iterations 2
max of H2O = 0.104211
min of H2O = -1.05807e-06
smoothSolver:  Solving for CH4, Initial residual = 0.00160293, Final residual = 4.07894e-08, No Iterations 5
max of CH4 = 1
min of CH4 = 0
smoothSolver:  Solving for CO2, Initial residual = 2.61291e-06, Final residual = 4.96046e-08, No Iterations 2
max of CO2 = 0.12729
min of CO2 = -1.29239e-06
max of N2 = 0.766992
min of N2 = 0
DILUPBiCG:  Solving for hs, Initial residual = 0.0097236, Final residual = 1.80922e-09, No Iterations 4
GAMG:  Solving for p_rgh, Initial residual = 0.174837, Final residual = 0.00161973, No Iterations 7
diagonal:  Solving for rho, Initial residual = 0, Final residual = 0, No Iterations 0
time step continuity errors : sum local = 2.24648e-05, global = 6.25257e-06, cumulative = 6.97671e-05
GAMG:  Solving for p_rgh, Initial residual = 0.0711817, Final residual = 6.71975e-08, No Iterations 18
diagonal:  Solving for rho, Initial residual = 0, Final residual = 0, No Iterations 0
time step continuity errors : sum local = 5.30426e-10, global = 2.35157e-10, cumulative = 6.97673e-05
smoothSolver:  Solving for k, Initial residual = 0.032084, Final residual = 3.69303e-08, No Iterations 5
ExecutionTime = 0.1 s  ClockTime = 0 s

Courant Number mean: 0.0856298 max: 0.76198
deltaT = 4.06725e-05
Time = 0.00444682

diagonal:  Solving for rho, Initial residual = 0, Final residual = 0, No Iterations 0
smoothSolver:  Solving for Ux, Initial residual = 0.0736332, Final residual = 2.5896e-08, No Iterations 8
smoothSolver:  Solving for Uy, Initial residual = 0.0398754, Final residual = 6.78402e-08, No Iterations 7
smoothSolver:  Solving for O2, Initial residual = 0.00335804, Final residual = 4.40668e-08, No Iterations 6
max of O2 = 0.23301
min of O2 = 0
smoothSolver:  Solving for H2O, Initial residual = 0.004419, Final residual = 6.24703e-08, No Iterations 6
max of H2O = 0.10712
min of H2O = -1.05807e-06
smoothSolver:  Solving for CH4, Initial residual = 0.00175699, Final residual = 2.52186e-08, No Iterations 5
max of CH4 = 1
min of CH4 = 0
smoothSolver:  Solving for CO2, Initial residual = 0.00425531, Final residual = 6.01562e-08, No Iterations 6
max of CO2 = 0.130843
min of CO2 = -1.29239e-06
max of N2 = 0.766992
min of N2 = 0
DILUPBiCG:  Solving for hs, Initial residual = 0.00596927, Final residual = 4.26487e-08, No Iterations 3
GAMG:  Solving for p_rgh, Initial residual = 0.350245, Final residual = 0.00307706, No Iterations 6
diagonal:  Solving for rho, Initial residual = 0, Final residual = 0, No Iterations 0
time step continuity errors : sum local = 2.95723e-05, global = -1.35316e-05, cumulative = 5.62357e-05
GAMG:  Solving for p_rgh, Initial residual = 0.0176173, Final residual = 4.96213e-08, No Iterations 16
diagonal:  Solving for rho, Initial residual = 0, Final residual = 0, No Iterations 0
time step continuity errors : sum local = 1.32145e-09, global = 5.79322e-10, cumulative = 5.62363e-05
smoothSolver:  Solving for k, Initial residual = 0.0326119, Final residual = 8.98686e-09, No Iterations 5
ExecutionTime = 0.11 s  ClockTime = 0 s

Courant Number mean: 0.0672468 max: 0.354701
deltaT = 4.87721e-05
Time = 0.00449559

diagonal:  Solving for rho, Initial residual = 0, Final residual = 0, No Iterations 0
smoothSolver:  Solving for Ux, Initial residual = 0.300148, Final residual = 5.4277e-08, No Iterations 7
smoothSolver:  Solving for Uy, Initial residual = 0.30129, Final residual = 2.88174e-08, No Iterations 8
smoothSolver:  Solving for O2, Initial residual = 0.00279679, Final residual = 1.8471e-08, No Iterations 6
max of O2 = 0.23301
min of O2 = 0
smoothSolver:  Solving for H2O, Initial residual = 1.13928e-06, Final residual = 5.43923e-10, No Iterations 1
max of H2O = 0.108171
min of H2O = -1.05807e-06
smoothSolver:  Solving for CH4, Initial residual = 0.00266489, Final residual = 1.50986e-08, No Iterations 5
max of CH4 = 1
min of CH4 = 0
smoothSolver:  Solving for CO2, Initial residual = 1.13827e-06, Final residual = 4.45305e-10, No Iterations 1
max of CO2 = 0.132126
min of CO2 = -1.29239e-06
max of N2 = 0.766992
min of N2 = 0
DILUPBiCG:  Solving for hs, Initial residual = 0.00494308, Final residual = 2.64948e-09, No Iterations 3
GAMG:  Solving for p_rgh, Initial residual = 0.0820632, Final residual = 0.000581617, No Iterations 6
diagonal:  Solving for rho, Initial residual = 0, Final residual = 0, No Iterations 0
time step continuity errors : sum local = 2.07519e-05, global = 9.64001e-06, cumulative = 6.58763e-05
GAMG:  Solving for p_rgh, Initial residual = 0.022558, Final residual = 7.42898e-08, No Iterations 17
diagonal:  Solving for rho, Initial residual = 0, Final residual = 0, No Iterations 0
time step continuity errors : sum local = 1.97056e-09, global = 4.82345e-10, cumulative = 6.58768e-05
smoothSolver:  Solving for k, Initial residual = 0.0436254, Final residual = 4.25258e-08, No Iterations 5
ExecutionTime = 0.12 s  ClockTime = 0 s

Courant Number mean: 0.064972 max: 0.240468
deltaT = 5.8489e-05
Time = 0.00455408

diagonal:  Solving for rho, Initial residual = 0, Final residual = 0, No Iterations 0
smoothSolver:  Solving for Ux, Initial residual = 0.263823, Final residual = 6.46505e-08, No Iterations 7
smoothSolver:  Solving for Uy, Initial residual = 0.404459, Final residual = 4.04249e-08, No Iterations 8
smoothSolver:  Solving for O2, Initial residual = 0.00328783, Final residual = 2.30662e-08, No Iterations 6
max of O2 = 0.23301
min of O2 = 0
smoothSolver:  Solving for H2O, Initial residual = 5.16134e-06, Final residual = 4.32289e-10, No Iterations 1
max of H2O = 0.108058
min of H2O = -1.05807e-06
smoothSolver:  Solving for CH4, Initial residual = 0.00404374, Final residual = 4.59197e-08, No Iterations 5
max of CH4 = 1
min of CH4 = 0
smoothSolver:  Solving for CO2, Initial residual = 5.16052e-06, Final residual = 3.53911e-10, No Iterations 1
max of CO2 = 0.131989
min of CO2 = -1.29239e-06
max of N2 = 0.766995
min of N2 = 0
DILUPBiCG:  Solving for hs, Initial residual = 0.00700273, Final residual = 3.64117e-09, No Iterations 3
GAMG:  Solving for p_rgh, Initial residual = 0.113136, Final residual = 0.00104382, No Iterations 7
diagonal:  Solving for rho, Initial residual = 0, Final residual = 0, No Iterations 0
time step continuity errors : sum local = 3.85926e-05, global = -1.0532e-05, cumulative = 5.53448e-05
GAMG:  Solving for p_rgh, Initial residual = 0.188185, Final residual = 8.11169e-08, No Iterations 20
diagonal:  Solving for rho, Initial residual = 0, Final residual = 0, No Iterations 0
time step continuity errors : sum local = 3.53503e-10, global = -1.60609e-10, cumulative = 5.53446e-05
smoothSolver:  Solving for k, Initial residual = 0.0378604, Final residual = 2.29455e-08, No Iterations 6
ExecutionTime = 0.13 s  ClockTime = 0 s

Courant Number mean: 0.0765349 max: 0.367469
deltaT = 7.01326e-05
Time = 0.00462421

diagonal:  Solving for rho, Initial residual = 0, Final residual = 0, No Iterations 0
smoothSolver:  Solving for Ux, Initial residual = 0.0452739, Final residual = 2.01594e-08, No Iterations 7
smoothSolver:  Solving for Uy, Initial residual = 0.0585398, Final residual = 2.32724e-08, No Iterations 8
smoothSolver:  Solving for O2, Initial residual = 0.00359396, Final residual = 6.97185e-08, No Iterations 6
max of O2 = 0.23301
min of O2 = 0
smoothSolver:  Solving for H2O, Initial residual = 0.00037142, Final residual = 1.21617e-11, No Iterations 1
max of H2O = 0.107245
min of H2O = -1.05807e-06
smoothSolver:  Solving for CH4, Initial residual = 0.0044392, Final residual = 1.48299e-08, No Iterations 6
max of CH4 = 1
min of CH4 = 0
smoothSolver:  Solving for CO2, Initial residual = 0.00037142, Final residual = 9.95672e-12, No Iterations 1
max of CO2 = 0.130995
min of CO2 = -1.29239e-06
max of N2 = 0.767011
min of N2 = 0
DILUPBiCG:  Solving for hs, Initial residual = 0.00879426, Final residual = 1.42555e-08, No Iterations 3
GAMG:  Solving for p_rgh, Initial residual = 0.318997, Final residual = 0.0023694, No Iterations 7
diagonal:  Solving for rho, Initial residual = 0, Final residual = 0, No Iterations 0
time step continuity errors : sum local = 2.13947e-05, global = -5.70225e-06, cumulative = 4.96424e-05
GAMG:  Solving for p_rgh, Initial residual = 0.0349226, Final residual = 6.24539e-08, No Iterations 18
diagonal:  Solving for rho, Initial residual = 0, Final residual = 0, No Iterations 0
time step continuity errors : sum local = 7.69794e-10, global = -3.43352e-10, cumulative = 4.9642e-05
smoothSolver:  Solving for k, Initial residual = 0.0334782, Final residual = 3.9174e-08, No Iterations 6
ExecutionTime = 0.14 s  ClockTime = 0 s

Courant Number mean: 0.0928948 max: 0.361779
deltaT = 8.40292e-05
Time = 0.00470824

diagonal:  Solving for rho, Initial residual = 0, Final residual = 0, No Iterations 0
smoothSolver:  Solving for Ux, Initial residual = 0.0637814, Final residual = 4.92408e-08, No Iterations 8
smoothSolver:  Solving for Uy, Initial residual = 0.0820866, Final residual = 8.80271e-08, No Iterations 8
smoothSolver:  Solving for O2, Initial residual = 0.00375762, Final residual = 2.87272e-08, No Iterations 7
max of O2 = 0.23301
min of O2 = 0
smoothSolver:  Solving for H2O, Initial residual = 0.00442206, Final residual = 7.99743e-13, No Iterations 1
max of H2O = 0.105932
min of H2O = -1.05806e-06
smoothSolver:  Solving for CH4, Initial residual = 0.00448588, Final residual = 3.43556e-08, No Iterations 6
max of CH4 = 1
min of CH4 = 0
smoothSolver:  Solving for CO2, Initial residual = 0.00442206, Final residual = 6.54739e-13, No Iterations 1
max of CO2 = 0.129391
min of CO2 = -1.29239e-06
max of N2 = 0.767616
min of N2 = 0
DILUPBiCG:  Solving for hs, Initial residual = 0.0095599, Final residual = 1.41557e-08, No Iterations 3
GAMG:  Solving for p_rgh, Initial residual = 0.182928, Final residual = 0.00125285, No Iterations 6
diagonal:  Solving for rho, Initial residual = 0, Final residual = 0, No Iterations 0
time step continuity errors : sum local = 1.96311e-05, global = 4.59839e-06, cumulative = 5.42404e-05
GAMG:  Solving for p_rgh, Initial residual = 0.0628901, Final residual = 7.70487e-08, No Iterations 18
diagonal:  Solving for rho, Initial residual = 0, Final residual = 0, No Iterations 0
time step continuity errors : sum local = 7.64568e-10, global = -1.67296e-10, cumulative = 5.42403e-05
smoothSolver:  Solving for k, Initial residual = 0.0295194, Final residual = 4.94529e-08, No Iterations 6
ExecutionTime = 0.15 s  ClockTime = 0 s

Courant Number mean: 0.111339 max: 0.434605
deltaT = 0.000100648
Time = 0.00480889

diagonal:  Solving for rho, Initial residual = 0, Final residual = 0, No Iterations 0
smoothSolver:  Solving for Ux, Initial residual = 0.0652072, Final residual = 3.75856e-08, No Iterations 9
smoothSolver:  Solving for Uy, Initial residual = 0.0520081, Final residual = 3.18671e-08, No Iterations 9
smoothSolver:  Solving for O2, Initial residual = 0.00377057, Final residual = 1.76113e-08, No Iterations 8
max of O2 = 0.23301
min of O2 = 0
smoothSolver:  Solving for H2O, Initial residual = 0.0130208, Final residual = 9.02784e-13, No Iterations 1
max of H2O = 0.104365
min of H2O = -1.05806e-06
smoothSolver:  Solving for CH4, Initial residual = 0.00469494, Final residual = 1.65427e-08, No Iterations 7
max of CH4 = 1
min of CH4 = 0
smoothSolver:  Solving for CO2, Initial residual = 0.0130208, Final residual = 7.39078e-13, No Iterations 1
max of CO2 = 0.127478
min of CO2 = -1.29238e-06
max of N2 = 0.77003
min of N2 = 0
DILUPBiCG:  Solving for hs, Initial residual = 0.00990163, Final residual = 3.87279e-08, No Iterations 3
GAMG:  Solving for p_rgh, Initial residual = 0.310796, Final residual = 0.0018847, No Iterations 6
diagonal:  Solving for rho, Initial residual = 0, Final residual = 0, No Iterations 0
time step continuity errors : sum local = 2.94156e-05, global = -1.24308e-05, cumulative = 4.18095e-05
GAMG:  Solving for p_rgh, Initial residual = 0.0762192, Final residual = 8.29813e-08, No Iterations 18
diagonal:  Solving for rho, Initial residual = 0, Final residual = 0, No Iterations 0
time step continuity errors : sum local = 8.47735e-10, global = 3.68964e-10, cumulative = 4.18099e-05
smoothSolver:  Solving for k, Initial residual = 0.0266317, Final residual = 9.85391e-08, No Iterations 6
ExecutionTime = 0.16 s  ClockTime = 0 s

Courant Number mean: 0.129131 max: 0.477355
deltaT = 0.00012051
Time = 0.0049294

diagonal:  Solving for rho, Initial residual = 0, Final residual = 0, No Iterations 0
smoothSolver:  Solving for Ux, Initial residual = 0.0291683, Final residual = 3.70428e-08, No Iterations 9
smoothSolver:  Solving for Uy, Initial residual = 0.0250517, Final residual = 8.9218e-08, No Iterations 9
smoothSolver:  Solving for O2, Initial residual = 0.00419689, Final residual = 6.40422e-08, No Iterations 8
max of O2 = 0.23301
min of O2 = 0
smoothSolver:  Solving for H2O, Initial residual = 0.00951444, Final residual = 4.37322e-13, No Iterations 1
max of H2O = 0.102665
min of H2O = -1.05803e-06
smoothSolver:  Solving for CH4, Initial residual = 0.00552984, Final residual = 6.45944e-08, No Iterations 7
max of CH4 = 1
min of CH4 = 0
smoothSolver:  Solving for CO2, Initial residual = 0.00951444, Final residual = 3.58062e-13, No Iterations 1
max of CO2 = 0.125402
min of CO2 = -1.29236e-06
max of N2 = 0.770511
min of N2 = 0
DILUPBiCG:  Solving for hs, Initial residual = 0.0109255, Final residual = 7.08518e-08, No Iterations 3
GAMG:  Solving for p_rgh, Initial residual = 0.547508, Final residual = 0.00505932, No Iterations 4
diagonal:  Solving for rho, Initial residual = 0, Final residual = 0, No Iterations 0
time step continuity errors : sum local = 5.13792e-05, global = -9.15166e-06, cumulative = 3.26582e-05
GAMG:  Solving for p_rgh, Initial residual = 0.148926, Final residual = 6.08724e-08, No Iterations 16
diagonal:  Solving for rho, Initial residual = 0, Final residual = 0, No Iterations 0
time step continuity errors : sum local = 3.68232e-10, global = -1.57643e-10, cumulative = 3.26581e-05
smoothSolver:  Solving for k, Initial residual = 0.0245895, Final residual = 4.99625e-08, No Iterations 7
ExecutionTime = 0.17 s  ClockTime = 0 s

Courant Number mean: 0.153033 max: 0.541764
deltaT = 0.000142628
Time = 0.00507203

diagonal:  Solving for rho, Initial residual = 0, Final residual = 0, No Iterations 0
smoothSolver:  Solving for Ux, Initial residual = 0.023244, Final residual = 9.96182e-08, No Iterations 9
smoothSolver:  Solving for Uy, Initial residual = 0.0190531, Final residual = 5.69899e-08, No Iterations 10
smoothSolver:  Solving for O2, Initial residual = 0.00453965, Final residual = 5.13275e-08, No Iterations 9
max of O2 = 0.23301
min of O2 = 0
smoothSolver:  Solving for H2O, Initial residual = 0.0139118, Final residual = 3.51979e-13, No Iterations 1
max of H2O = 0.101203
min of H2O = -1.05805e-06
smoothSolver:  Solving for CH4, Initial residual = 0.00620428, Final residual = 5.49231e-08, No Iterations 8
max of CH4 = 1
min of CH4 = 0
smoothSolver:  Solving for CO2, Initial residual = 0.0139118, Final residual = 2.88157e-13, No Iterations 1
max of CO2 = 0.123616
min of CO2 = -1.29237e-06
max of N2 = 0.769728
min of N2 = 0
DILUPBiCG:  Solving for hs, Initial residual = 0.0122819, Final residual = 1.27792e-08, No Iterations 4
GAMG:  Solving for p_rgh, Initial residual = 0.536894, Final residual = 0.00212672, No Iterations 4
diagonal:  Solving for rho, Initial residual = 0, Final residual = 0, No Iterations 0
time step continuity errors : sum local = 1.96232e-05, global = 1.32645e-06, cumulative = 3.39845e-05
GAMG:  Solving for p_rgh, Initial residual = 0.0990897, Final residual = 7.0666e-08, No Iterations 15
diagonal:  Solving for rho, Initial residual = 0, Final residual = 0, No Iterations 0
time step continuity errors : sum local = 7.01024e-10, global = -3.07018e-10, cumulative = 3.39842e-05
smoothSolver:  Solving for k, Initial residual = 0.0222395, Final residual = 2.78609e-08, No Iterations 8
ExecutionTime = 0.18 s  ClockTime = 0 s

Courant Number mean: 0.180353 max: 0.597599
deltaT = 0.0001664
Time = 0.00523843

diagonal:  Solving for rho, Initial residual = 0, Final residual = 0, No Iterations 0
smoothSolver:  Solving for Ux, Initial residual = 0.0291154, Final residual = 4.43415e-08, No Iterations 11
smoothSolver:  Solving for Uy, Initial residual = 0.0239308, Final residual = 5.85494e-08, No Iterations 11
smoothSolver:  Solving for O2, Initial residual = 0.00524144, Final residual = 4.34468e-08, No Iterations 10
max of O2 = 0.23301
min of O2 = 0
smoothSolver:  Solving for H2O, Initial residual = 0.0131769, Final residual = 2.65971e-13, No Iterations 1
max of H2O = 0.100022
min of H2O = -1.05801e-06
smoothSolver:  Solving for CH4, Initial residual = 0.00683651, Final residual = 4.18204e-08, No Iterations 9
max of CH4 = 1
min of CH4 = 0
smoothSolver:  Solving for CO2, Initial residual = 0.0131769, Final residual = 2.17711e-13, No Iterations 1
max of CO2 = 0.122174
min of CO2 = -1.29235e-06
max of N2 = 0.769866
min of N2 = 0
DILUPBiCG:  Solving for hs, Initial residual = 0.0139535, Final residual = 1.13558e-08, No Iterations 4
GAMG:  Solving for p_rgh, Initial residual = 0.536415, Final residual = 0.00386195, No Iterations 5
diagonal:  Solving for rho, Initial residual = 0, Final residual = 0, No Iterations 0
time step continuity errors : sum local = 4.59471e-05, global = 4.11197e-06, cumulative = 3.80962e-05
GAMG:  Solving for p_rgh, Initial residual = 0.121757, Final residual = 9.07138e-08, No Iterations 19
diagonal:  Solving for rho, Initial residual = 0, Final residual = 0, No Iterations 0
time step continuity errors : sum local = 9.56907e-10, global = -1.90719e-10, cumulative = 3.8096e-05
smoothSolver:  Solving for k, Initial residual = 0.0209908, Final residual = 5.9428e-08, No Iterations 8
ExecutionTime = 0.2 s  ClockTime = 0 s

Courant Number mean: 0.210889 max: 0.691492
deltaT = 0.000189668
Time = 0.00542809

diagonal:  Solving for rho, Initial residual = 0, Final residual = 0, No Iterations 0
smoothSolver:  Solving for Ux, Initial residual = 0.0310463, Final residual = 4.61478e-08, No Iterations 12
smoothSolver:  Solving for Uy, Initial residual = 0.017523, Final residual = 6.29405e-08, No Iterations 11
smoothSolver:  Solving for O2, Initial residual = 0.0059195, Final residual = 4.15386e-08, No Iterations 11
max of O2 = 0.23301
min of O2 = 0
smoothSolver:  Solving for H2O, Initial residual = 0.0224645, Final residual = 3.8077e-13, No Iterations 1
max of H2O = 0.0986192
min of H2O = -1.05803e-06
smoothSolver:  Solving for CH4, Initial residual = 0.00701018, Final residual = 3.20222e-08, No Iterations 10
max of CH4 = 1
min of CH4 = 0
smoothSolver:  Solving for CO2, Initial residual = 0.0224645, Final residual = 3.11723e-13, No Iterations 1
max of CO2 = 0.12046
min of CO2 = -1.29235e-06
max of N2 = 0.769566
min of N2 = 0
DILUPBiCG:  Solving for hs, Initial residual = 0.015187, Final residual = 1.42415e-08, No Iterations 4
GAMG:  Solving for p_rgh, Initial residual = 0.53131, Final residual = 0.00333196, No Iterations 4
diagonal:  Solving for rho, Initial residual = 0, Final residual = 0, No Iterations 0
time step continuity errors : sum local = 3.75904e-05, global = 1.15387e-06, cumulative = 3.92498e-05
GAMG:  Solving for p_rgh, Initial residual = 0.141638, Final residual = 7.87566e-08, No Iterations 16
diagonal:  Solving for rho, Initial residual = 0, Final residual = 0, No Iterations 0
time step continuity errors : sum local = 9.14463e-10, global = -3.53308e-10, cumulative = 3.92495e-05
smoothSolver:  Solving for k, Initial residual = 0.0201332, Final residual = 9.94701e-08, No Iterations 8
ExecutionTime = 0.21 s  ClockTime = 0 s

Courant Number mean: 0.242621 max: 0.755046
deltaT = 0.000214288
Time = 0.00564238

diagonal:  Solving for rho, Initial residual = 0, Final residual = 0, No Iterations 0
smoothSolver:  Solving for Ux, Initial residual = 0.0328458, Final residual = 4.49005e-08, No Iterations 15
smoothSolver:  Solving for Uy, Initial residual = 0.019039, Final residual = 9.49143e-08, No Iterations 12
smoothSolver:  Solving for O2, Initial residual = 0.00607435, Final residual = 4.57524e-08, No Iterations 12
max of O2 = 0.23301
min of O2 = 0
smoothSolver:  Solving for H2O, Initial residual = 0.0219969, Final residual = 4.045e-13, No Iterations 1
max of H2O = 0.0972372
min of H2O = -1.05802e-06
smoothSolver:  Solving for CH4, Initial residual = 0.00724637, Final residual = 9.89009e-08, No Iterations 10
max of CH4 = 1
min of CH4 = 0
smoothSolver:  Solving for CO2, Initial residual = 0.0219969, Final residual = 3.31141e-13, No Iterations 1
max of CO2 = 0.118772
min of CO2 = -1.29235e-06
max of N2 = 0.767909
min of N2 = 0
DILUPBiCG:  Solving for hs, Initial residual = 0.0164276, Final residual = 1.18361e-08, No Iterations 4
GAMG:  Solving for p_rgh, Initial residual = 0.453924, Final residual = 0.00233316, No Iterations 5
diagonal:  Solving for rho, Initial residual = 0, Final residual = 0, No Iterations 0
time step continuity errors : sum local = 3.2081e-05, global = -6.3647e-06, cumulative = 3.28848e-05
GAMG:  Solving for p_rgh, Initial residual = 0.0959491, Final residual = 9.70288e-08, No Iterations 16
diagonal:  Solving for rho, Initial residual = 0, Final residual = 0, No Iterations 0
time step continuity errors : sum local = 1.75622e-09, global = -4.40076e-10, cumulative = 3.28843e-05
smoothSolver:  Solving for k, Initial residual = 0.0202221, Final residual = 5.49231e-08, No Iterations 9
ExecutionTime = 0.22 s  ClockTime = 0 s

Courant Number mean: 0.268636 max: 0.8521
deltaT = 0.000238482
Time = 0.00588086

diagonal:  Solving for rho, Initial residual = 0, Final residual = 0, No Iterations 0
smoothSolver:  Solving for Ux, Initial residual = 0.0517444, Final residual = 5.46465e-08, No Iterations 18
smoothSolver:  Solving for Uy, Initial residual = 0.0283983, Final residual = 8.30299e-08, No Iterations 16
smoothSolver:  Solving for O2, Initial residual = 0.00627185, Final residual = 4.43653e-08, No Iterations 13
max of O2 = 0.23301
min of O2 = 0
smoothSolver:  Solving for H2O, Initial residual = 0.0175487, Final residual = 3.32327e-13, No Iterations 1
max of H2O = 0.0960208
min of H2O = -1.05802e-06
smoothSolver:  Solving for CH4, Initial residual = 0.00703553, Final residual = 6.20334e-08, No Iterations 11
max of CH4 = 1
min of CH4 = 0
smoothSolver:  Solving for CO2, Initial residual = 0.0175487, Final residual = 2.72099e-13, No Iterations 1
max of CO2 = 0.117286
min of CO2 = -1.29234e-06
max of N2 = 0.769404
min of N2 = 0
DILUPBiCG:  Solving for hs, Initial residual = 0.0169123, Final residual = 7.72825e-10, No Iterations 5
GAMG:  Solving for p_rgh, Initial residual = 0.338261, Final residual = 0.00275768, No Iterations 4
diagonal:  Solving for rho, Initial residual = 0, Final residual = 0, No Iterations 0
time step continuity errors : sum local = 5.78445e-05, global = -1.92173e-05, cumulative = 1.3667e-05
GAMG:  Solving for p_rgh, Initial residual = 0.123517, Final residual = 6.78058e-08, No Iterations 16
diagonal:  Solving for rho, Initial residual = 0, Final residual = 0, No Iterations 0
time step continuity errors : sum local = 1.05727e-09, global = -4.45413e-11, cumulative = 1.3667e-05
smoothSolver:  Solving for k, Initial residual = 0.0205054, Final residual = 9.27016e-08, No Iterations 9
ExecutionTime = 0.23 s  ClockTime = 0 s

Courant Number mean: 0.29253 max: 0.897229
deltaT = 0.000264186
Time = 0.00614505

diagonal:  Solving for rho, Initial residual = 0, Final residual = 0, No Iterations 0
smoothSolver:  Solving for Ux, Initial residual = 0.0476289, Final residual = 6.92391e-08, No Iterations 20
smoothSolver:  Solving for Uy, Initial residual = 0.0186207, Final residual = 5.91179e-08, No Iterations 18
smoothSolver:  Solving for O2, Initial residual = 0.00610325, Final residual = 5.10838e-08, No Iterations 14
max of O2 = 0.23301
min of O2 = 0
smoothSolver:  Solving for H2O, Initial residual = 0.0226068, Final residual = 4.39564e-13, No Iterations 1
max of H2O = 0.0945717
min of H2O = -1.05802e-06
smoothSolver:  Solving for CH4, Initial residual = 0.00711389, Final residual = 6.59225e-08, No Iterations 12
max of CH4 = 1
min of CH4 = 0
smoothSolver:  Solving for CO2, Initial residual = 0.0226068, Final residual = 3.59872e-13, No Iterations 1
max of CO2 = 0.115516
min of CO2 = -1.29234e-06
max of N2 = 0.769091
min of N2 = 0
DILUPBiCG:  Solving for hs, Initial residual = 0.0170174, Final residual = 7.00596e-08, No Iterations 4
GAMG:  Solving for p_rgh, Initial residual = 0.383728, Final residual = 0.00205476, No Iterations 5
diagonal:  Solving for rho, Initial residual = 0, Final residual = 0, No Iterations 0
time step continuity errors : sum local = 4.02824e-05, global = -1.74144e-05, cumulative = -3.74738e-06
GAMG:  Solving for p_rgh, Initial residual = 0.169029, Final residual = 9.92311e-08, No Iterations 18
diagonal:  Solving for rho, Initial residual = 0, Final residual = 0, No Iterations 0
time step continuity errors : sum local = 1.35877e-09, global = -2.61722e-10, cumulative = -3.74764e-06
smoothSolver:  Solving for k, Initial residual = 0.0203816, Final residual = 5.99966e-08, No Iterations 10
ExecutionTime = 0.24 s  ClockTime = 0 s

Courant Number mean: 0.312596 max: 0.927899
deltaT = 0.000282935
Time = 0.00642799

diagonal:  Solving for rho, Initial residual = 0, Final residual = 0, No Iterations 0
smoothSolver:  Solving for Ux, Initial residual = 0.0510629, Final residual = 9.55174e-08, No Iterations 19
smoothSolver:  Solving for Uy, Initial residual = 0.0192788, Final residual = 7.53172e-08, No Iterations 19
smoothSolver:  Solving for O2, Initial residual = 0.0061191, Final residual = 9.04317e-08, No Iterations 14
max of O2 = 0.23301
min of O2 = 0
smoothSolver:  Solving for H2O, Initial residual = 0.0240776, Final residual = 6.17169e-13, No Iterations 1
max of H2O = 0.0929283
min of H2O = -1.05803e-06
smoothSolver:  Solving for CH4, Initial residual = 0.00701642, Final residual = 9.99159e-08, No Iterations 12
max of CH4 = 1
min of CH4 = 0
smoothSolver:  Solving for CO2, Initial residual = 0.0240776, Final residual = 5.05284e-13, No Iterations 1
max of CO2 = 0.113508
min of CO2 = -1.29235e-06
max of N2 = 0.771472
min of N2 = 0
DILUPBiCG:  Solving for hs, Initial residual = 0.0168045, Final residual = 7.55351e-08, No Iterations 4
GAMG:  Solving for p_rgh, Initial residual = 0.514756, Final residual = 0.00505013, No Iterations 5
diagonal:  Solving for rho, Initial residual = 0, Final residual = 0, No Iterations 0
time step continuity errors : sum local = 8.29901e-05, global = 1.34287e-05, cumulative = 9.6811e-06
GAMG:  Solving for p_rgh, Initial residual = 0.147012, Final residual = 9.93963e-08, No Iterations 18
diagonal:  Solving for rho, Initial residual = 0, Final residual = 0, No Iterations 0
time step continuity errors : sum local = 1.94135e-09, global = 4.49962e-10, cumulative = 9.68155e-06
smoothSolver:  Solving for k, Initial residual = 0.019429, Final residual = 8.87746e-08, No Iterations 10
ExecutionTime = 0.25 s  ClockTime = 0 s

Courant Number mean: 0.335294 max: 0.899994
deltaT = 0.000313468
Time = 0.00674145

diagonal:  Solving for rho, Initial residual = 0, Final residual = 0, No Iterations 0
smoothSolver:  Solving for Ux, Initial residual = 0.0472415, Final residual = 6.52728e-08, No Iterations 20
smoothSolver:  Solving for Uy, Initial residual = 0.0362789, Final residual = 9.09538e-08, No Iterations 21
smoothSolver:  Solving for O2, Initial residual = 0.0063595, Final residual = 5.61131e-08, No Iterations 16
max of O2 = 0.23301
min of O2 = 0
smoothSolver:  Solving for H2O, Initial residual = 0.0230611, Final residual = 7.21762e-13, No Iterations 1
max of H2O = 0.0911358
min of H2O = -1.05803e-06
smoothSolver:  Solving for CH4, Initial residual = 0.00756835, Final residual = 6.34724e-08, No Iterations 14
max of CH4 = 1
min of CH4 = 0
smoothSolver:  Solving for CO2, Initial residual = 0.0230611, Final residual = 5.90911e-13, No Iterations 1
max of CO2 = 0.111319
min of CO2 = -1.29235e-06
max of N2 = 0.774858
min of N2 = 0
DILUPBiCG:  Solving for hs, Initial residual = 0.0176708, Final residual = 9.45323e-08, No Iterations 4
GAMG:  Solving for p_rgh, Initial residual = 0.417095, Final residual = 0.00348203, No Iterations 5
diagonal:  Solving for rho, Initial residual = 0, Final residual = 0, No Iterations 0
time step continuity errors : sum local = 7.51484e-05, global = 3.11819e-06, cumulative = 1.27997e-05
GAMG:  Solving for p_rgh, Initial residual = 0.14455, Final residual = 7.01292e-08, No Iterations 19
diagonal:  Solving for rho, Initial residual = 0, Final residual = 0, No Iterations 0
time step continuity errors : sum local = 1.28526e-09, global = 1.62243e-10, cumulative = 1.27999e-05
smoothSolver:  Solving for k, Initial residual = 0.0196792, Final residual = 7.61912e-08, No Iterations 11
ExecutionTime = 0.26 s  ClockTime = 0 s

Courant Number mean: 0.372029 max: 0.936668
deltaT = 0.000332758
Time = 0.00707421

diagonal:  Solving for rho, Initial residual = 0, Final residual = 0, No Iterations 0
smoothSolver:  Solving for Ux, Initial residual = 0.0372949, Final residual = 7.74397e-08, No Iterations 20
smoothSolver:  Solving for Uy, Initial residual = 0.0182981, Final residual = 6.21881e-08, No Iterations 21
smoothSolver:  Solving for O2, Initial residual = 0.00663177, Final residual = 4.91629e-08, No Iterations 17
max of O2 = 0.23301
min of O2 = 0
smoothSolver:  Solving for H2O, Initial residual = 0.0271194, Final residual = 1.07467e-12, No Iterations 1
max of H2O = 0.0899962
min of H2O = -1.05803e-06
smoothSolver:  Solving for CH4, Initial residual = 0.00745982, Final residual = 9.42193e-08, No Iterations 14
max of CH4 = 1
min of CH4 = 0
smoothSolver:  Solving for CO2, Initial residual = 0.0271194, Final residual = 8.79807e-13, No Iterations 1
max of CO2 = 0.109927
min of CO2 = -1.29235e-06
max of N2 = 0.780293
min of N2 = 0
DILUPBiCG:  Solving for hs, Initial residual = 0.0182075, Final residual = 4.96912e-09, No Iterations 5
GAMG:  Solving for p_rgh, Initial residual = 0.589347, Final residual = 0.00378517, No Iterations 5
diagonal:  Solving for rho, Initial residual = 0, Final residual = 0, No Iterations 0
time step continuity errors : sum local = 5.64999e-05, global = 2.48628e-05, cumulative = 3.76627e-05
GAMG:  Solving for p_rgh, Initial residual = 0.105203, Final residual = 8.8864e-08, No Iterations 18
diagonal:  Solving for rho, Initial residual = 0, Final residual = 0, No Iterations 0
time step continuity errors : sum local = 1.85381e-09, global = -3.91953e-10, cumulative = 3.76623e-05
smoothSolver:  Solving for k, Initial residual = 0.0199901, Final residual = 4.64219e-08, No Iterations 12
ExecutionTime = 0.27 s  ClockTime = 0 s

Courant Number mean: 0.391836 max: 0.990136
deltaT = 0.000335358
Time = 0.00740957

diagonal:  Solving for rho, Initial residual = 0, Final residual = 0, No Iterations 0
smoothSolver:  Solving for Ux, Initial residual = 0.0293323, Final residual = 7.44429e-08, No Iterations 21
smoothSolver:  Solving for Uy, Initial residual = 0.0163796, Final residual = 6.40935e-08, No Iterations 20
smoothSolver:  Solving for O2, Initial residual = 0.00641804, Final residual = 7.5431e-08, No Iterations 17
max of O2 = 0.23301
min of O2 = 0
smoothSolver:  Solving for H2O, Initial residual = 0.0274876, Final residual = 1.41295e-12, No Iterations 1
max of H2O = 0.0887238
min of H2O = -1.05803e-06
smoothSolver:  Solving for CH4, Initial residual = 0.00684329, Final residual = 5.65959e-08, No Iterations 15
max of CH4 = 1
min of CH4 = 0
smoothSolver:  Solving for CO2, Initial residual = 0.0274876, Final residual = 1.15678e-12, No Iterations 1
max of CO2 = 0.108373
min of CO2 = -1.29235e-06
max of N2 = 0.785371
min of N2 = 0
DILUPBiCG:  Solving for hs, Initial residual = 0.0174844, Final residual = 4.56298e-08, No Iterations 5
GAMG:  Solving for p_rgh, Initial residual = 0.365915, Final residual = 0.00162546, No Iterations 5
diagonal:  Solving for rho, Initial residual = 0, Final residual = 0, No Iterations 0
time step continuity errors : sum local = 2.87351e-05, global = -7.86868e-06, cumulative = 2.97936e-05
GAMG:  Solving for p_rgh, Initial residual = 0.0892433, Final residual = 4.86578e-08, No Iterations 19
diagonal:  Solving for rho, Initial residual = 0, Final residual = 0, No Iterations 0
time step continuity errors : sum local = 9.64816e-10, global = 4.18087e-10, cumulative = 2.97941e-05
smoothSolver:  Solving for k, Initial residual = 0.0194856, Final residual = 5.15649e-08, No Iterations 12
ExecutionTime = 0.28 s  ClockTime = 0 s

Courant Number mean: 0.382219 max: 0.945165
deltaT = 0.000351987
Time = 0.00776156

diagonal:  Solving for rho, Initial residual = 0, Final residual = 0, No Iterations 0
smoothSolver:  Solving for Ux, Initial residual = 0.0441295, Final residual = 8.07495e-08, No Iterations 22
smoothSolver:  Solving for Uy, Initial residual = 0.0175359, Final residual = 6.7216e-08, No Iterations 20
smoothSolver:  Solving for O2, Initial residual = 0.00615995, Final residual = 6.67405e-08, No Iterations 18
max of O2 = 0.23301
min of O2 = 0
smoothSolver:  Solving for H2O, Initial residual = 0.0275582, Final residual = 2.13389e-12, No Iterations 1
max of H2O = 0.0873162
min of H2O = -1.05803e-06
smoothSolver:  Solving for CH4, Initial residual = 0.0066283, Final residual = 8.46986e-08, No Iterations 15
max of CH4 = 1
min of CH4 = 0
smoothSolver:  Solving for CO2, Initial residual = 0.0275582, Final residual = 1.74701e-12, No Iterations 1
max of CO2 = 0.106653
min of CO2 = -1.29235e-06
max of N2 = 0.790795
min of N2 = 0
DILUPBiCG:  Solving for hs, Initial residual = 0.0170864, Final residual = 4.23098e-09, No Iterations 5
GAMG:  Solving for p_rgh, Initial residual = 0.327551, Final residual = 0.00214902, No Iterations 5
diagonal:  Solving for rho, Initial residual = 0, Final residual = 0, No Iterations 0
time step continuity errors : sum local = 4.60638e-05, global = 7.22394e-06, cumulative = 3.7018e-05
GAMG:  Solving for p_rgh, Initial residual = 0.140947, Final residual = 9.62753e-08, No Iterations 19
diagonal:  Solving for rho, Initial residual = 0, Final residual = 0, No Iterations 0
time step continuity errors : sum local = 1.34282e-09, global = -2.67443e-10, cumulative = 3.70177e-05
smoothSolver:  Solving for k, Initial residual = 0.0194789, Final residual = 7.60893e-08, No Iterations 12
ExecutionTime = 0.3 s  ClockTime = 0 s

Courant Number mean: 0.384573 max: 0.965093
deltaT = 0.000364125
Time = 0.00812568

diagonal:  Solving for rho, Initial residual = 0, Final residual = 0, No Iterations 0
smoothSolver:  Solving for Ux, Initial residual = 0.0375533, Final residual = 9.80961e-08, No Iterations 20
smoothSolver:  Solving for Uy, Initial residual = 0.0132678, Final residual = 7.49042e-08, No Iterations 20
smoothSolver:  Solving for O2, Initial residual = 0.00578434, Final residual = 6.14464e-08, No Iterations 19
max of O2 = 0.23301
min of O2 = 0
smoothSolver:  Solving for H2O, Initial residual = 0.0273862, Final residual = 2.95872e-12, No Iterations 1
max of H2O = 0.085788
min of H2O = -1.05802e-06
smoothSolver:  Solving for CH4, Initial residual = 0.00648618, Final residual = 6.8778e-08, No Iterations 16
max of CH4 = 1
min of CH4 = 0
smoothSolver:  Solving for CO2, Initial residual = 0.0273862, Final residual = 2.42228e-12, No Iterations 1
max of CO2 = 0.104787
min of CO2 = -1.29234e-06
max of N2 = 0.795433
min of N2 = 0
DILUPBiCG:  Solving for hs, Initial residual = 0.0163954, Final residual = 6.2491e-09, No Iterations 5
GAMG:  Solving for p_rgh, Initial residual = 0.409539, Final residual = 0.00349779, No Iterations 4
diagonal:  Solving for rho, Initial residual = 0, Final residual = 0, No Iterations 0
time step continuity errors : sum local = 5.81527e-05, global = -1.77343e-05, cumulative = 1.92834e-05
GAMG:  Solving for p_rgh, Initial residual = 0.14522, Final residual = 8.17424e-08, No Iterations 18
diagonal:  Solving for rho, Initial residual = 0, Final residual = 0, No Iterations 0
time step continuity errors : sum local = 1.07975e-09, global = 4.73941e-10, cumulative = 1.92839e-05
smoothSolver:  Solving for k, Initial residual = 0.0190389, Final residual = 5.3859e-08, No Iterations 13
ExecutionTime = 0.31 s  ClockTime = 0 s

Courant Number mean: 0.38728 max: 0.945195
deltaT = 0.000384168
Time = 0.00850985

diagonal:  Solving for rho, Initial residual = 0, Final residual = 0, No Iterations 0
smoothSolver:  Solving for Ux, Initial residual = 0.0396741, Final residual = 8.46253e-08, No Iterations 20
smoothSolver:  Solving for Uy, Initial residual = 0.0195017, Final residual = 6.73565e-08, No Iterations 22
smoothSolver:  Solving for O2, Initial residual = 0.00562603, Final residual = 6.02356e-08, No Iterations 20
max of O2 = 0.23301
min of O2 = 0
smoothSolver:  Solving for H2O, Initial residual = 0.0240616, Final residual = 3.79868e-12, No Iterations 1
max of H2O = 0.0844318
min of H2O = -1.05802e-06
smoothSolver:  Solving for CH4, Initial residual = 0.00660274, Final residual = 6.54905e-08, No Iterations 17
max of CH4 = 1
min of CH4 = 0
smoothSolver:  Solving for CO2, Initial residual = 0.0240616, Final residual = 3.10996e-12, No Iterations 1
max of CO2 = 0.10313
min of CO2 = -1.29234e-06
max of N2 = 0.800637
min of N2 = 0
DILUPBiCG:  Solving for hs, Initial residual = 0.0161658, Final residual = 1.06171e-08, No Iterations 5
GAMG:  Solving for p_rgh, Initial residual = 0.501749, Final residual = 0.00486526, No Iterations 4
diagonal:  Solving for rho, Initial residual = 0, Final residual = 0, No Iterations 0
time step continuity errors : sum local = 6.58232e-05, global = -9.71147e-06, cumulative = 9.57244e-06
GAMG:  Solving for p_rgh, Initial residual = 0.125016, Final residual = 9.2718e-08, No Iterations 17
diagonal:  Solving for rho, Initial residual = 0, Final residual = 0, No Iterations 0
time step continuity errors : sum local = 1.35875e-09, global = -4.16877e-10, cumulative = 9.57202e-06
smoothSolver:  Solving for k, Initial residual = 0.019128, Final residual = 9.08408e-08, No Iterations 13
ExecutionTime = 0.32 s  ClockTime = 0 s

Courant Number mean: 0.400594 max: 0.952561
deltaT = 0.000402817
Time = 0.00891267

diagonal:  Solving for rho, Initial residual = 0, Final residual = 0, No Iterations 0
smoothSolver:  Solving for Ux, Initial residual = 0.0351702, Final residual = 9.68831e-08, No Iterations 20
smoothSolver:  Solving for Uy, Initial residual = 0.0164889, Final residual = 7.70283e-08, No Iterations 22
smoothSolver:  Solving for O2, Initial residual = 0.00555567, Final residual = 5.89431e-08, No Iterations 21
max of O2 = 0.23301
min of O2 = 0
smoothSolver:  Solving for H2O, Initial residual = 0.0286546, Final residual = 5.50191e-12, No Iterations 1
max of H2O = 0.0832308
min of H2O = -1.05801e-06
smoothSolver:  Solving for CH4, Initial residual = 0.00660485, Final residual = 5.69183e-08, No Iterations 18
max of CH4 = 1
min of CH4 = 0
smoothSolver:  Solving for CO2, Initial residual = 0.0286546, Final residual = 4.50443e-12, No Iterations 1
max of CO2 = 0.101663
min of CO2 = -1.29233e-06
max of N2 = 0.804353
min of N2 = 0
DILUPBiCG:  Solving for hs, Initial residual = 0.0162126, Final residual = 6.65833e-08, No Iterations 5
GAMG:  Solving for p_rgh, Initial residual = 0.4704, Final residual = 0.00212918, No Iterations 5
diagonal:  Solving for rho, Initial residual = 0, Final residual = 0, No Iterations 0
time step continuity errors : sum local = 2.92442e-05, global = 9.13787e-06, cumulative = 1.87099e-05
GAMG:  Solving for p_rgh, Initial residual = 0.101987, Final residual = 6.01015e-08, No Iterations 18
diagonal:  Solving for rho, Initial residual = 0, Final residual = 0, No Iterations 0
time step continuity errors : sum local = 1.09981e-09, global = -5.25431e-10, cumulative = 1.87094e-05
smoothSolver:  Solving for k, Initial residual = 0.0194078, Final residual = 6.5422e-08, No Iterations 14
ExecutionTime = 0.33 s  ClockTime = 0 s

Courant Number mean: 0.407886 max: 0.965608
deltaT = 0.000415024
Time = 0.00932769

diagonal:  Solving for rho, Initial residual = 0, Final residual = 0, No Iterations 0
smoothSolver:  Solving for Ux, Initial residual = 0.0322565, Final residual = 7.19012e-08, No Iterations 24
smoothSolver:  Solving for Uy, Initial residual = 0.0114025, Final residual = 6.04638e-08, No Iterations 19
smoothSolver:  Solving for O2, Initial residual = 0.00540686, Final residual = 9.03568e-08, No Iterations 21
max of O2 = 0.23301
min of O2 = 0
smoothSolver:  Solving for H2O, Initial residual = 0.0300713, Final residual = 8.20585e-12, No Iterations 1
max of H2O = 0.0819997
min of H2O = -1.05801e-06
smoothSolver:  Solving for CH4, Initial residual = 0.00642288, Final residual = 7.89451e-08, No Iterations 18
max of CH4 = 1
min of CH4 = 0
smoothSolver:  Solving for CO2, Initial residual = 0.0300713, Final residual = 6.71808e-12, No Iterations 1
max of CO2 = 0.100159
min of CO2 = -1.29233e-06
max of N2 = 0.809277
min of N2 = 0
DILUPBiCG:  Solving for hs, Initial residual = 0.0158786, Final residual = 2.82447e-08, No Iterations 5
GAMG:  Solving for p_rgh, Initial residual = 0.374026, Final residual = 0.00150281, No Iterations 4
diagonal:  Solving for rho, Initial residual = 0, Final residual = 0, No Iterations 0
time step continuity errors : sum local = 2.55569e-05, global = 4.75198e-06, cumulative = 2.34613e-05
GAMG:  Solving for p_rgh, Initial residual = 0.0911053, Final residual = 8.24476e-08, No Iterations 16
diagonal:  Solving for rho, Initial residual = 0, Final residual = 0, No Iterations 0
time step continuity errors : sum local = 1.53772e-09, global = -6.78089e-10, cumulative = 2.34607e-05
smoothSolver:  Solving for k, Initial residual = 0.019501, Final residual = 8.5332e-08, No Iterations 14
ExecutionTime = 0.34 s  ClockTime = 0 s

Courant Number mean: 0.400561 max: 0.944125
deltaT = 0.000437337
Time = 0.00976503

diagonal:  Solving for rho, Initial residual = 0, Final residual = 0, No Iterations 0
smoothSolver:  Solving for Ux, Initial residual = 0.0393777, Final residual = 7.19199e-08, No Iterations 26
smoothSolver:  Solving for Uy, Initial residual = 0.0101545, Final residual = 6.61924e-08, No Iterations 21
smoothSolver:  Solving for O2, Initial residual = 0.00521841, Final residual = 9.934e-08, No Iterations 22
max of O2 = 0.23301
min of O2 = 0
smoothSolver:  Solving for H2O, Initial residual = 0.0308393, Final residual = 1.22765e-11, No Iterations 1
max of H2O = 0.0807123
min of H2O = -1.058e-06
smoothSolver:  Solving for CH4, Initial residual = 0.00641795, Final residual = 7.91315e-08, No Iterations 19
max of CH4 = 1
min of CH4 = 0
smoothSolver:  Solving for CO2, Initial residual = 0.0308393, Final residual = 1.00507e-11, No Iterations 1
max of CO2 = 0.098587
min of CO2 = -1.29232e-06
max of N2 = 0.813453
min of N2 = 0
DILUPBiCG:  Solving for hs, Initial residual = 0.0156384, Final residual = 3.52413e-08, No Iterations 5
GAMG:  Solving for p_rgh, Initial residual = 0.370422, Final residual = 0.00140434, No Iterations 4
diagonal:  Solving for rho, Initial residual = 0, Final residual = 0, No Iterations 0
time step continuity errors : sum local = 2.68685e-05, global = -8.13753e-06, cumulative = 1.53231e-05
GAMG:  Solving for p_rgh, Initial residual = 0.133048, Final residual = 8.14062e-08, No Iterations 18
diagonal:  Solving for rho, Initial residual = 0, Final residual = 0, No Iterations 0
time step continuity errors : sum local = 1.19054e-09, global = 5.41388e-10, cumulative = 1.53237e-05
smoothSolver:  Solving for k, Initial residual = 0.0199242, Final residual = 6.42196e-08, No Iterations 15
ExecutionTime = 0.35 s  ClockTime = 0 s

Courant Number mean: 0.399922 max: 0.935918
deltaT = 0.000462471
Time = 0.0102275

diagonal:  Solving for rho, Initial residual = 0, Final residual = 0, No Iterations 0
smoothSolver:  Solving for Ux, Initial residual = 0.0422761, Final residual = 7.79695e-08, No Iterations 26
smoothSolver:  Solving for Uy, Initial residual = 0.0122343, Final residual = 8.50478e-08, No Iterations 24
smoothSolver:  Solving for O2, Initial residual = 0.00511215, Final residual = 6.892e-08, No Iterations 24
max of O2 = 0.23301
min of O2 = 0
smoothSolver:  Solving for H2O, Initial residual = 0.0322183, Final residual = 1.86594e-11, No Iterations 1
max of H2O = 0.079594
min of H2O = -1.05799e-06
smoothSolver:  Solving for CH4, Initial residual = 0.00649887, Final residual = 8.05365e-08, No Iterations 20
max of CH4 = 1
min of CH4 = 0
smoothSolver:  Solving for CO2, Initial residual = 0.0322183, Final residual = 1.52763e-11, No Iterations 1
max of CO2 = 0.097221
min of CO2 = -1.29231e-06
max of N2 = 0.818206
min of N2 = 0
DILUPBiCG:  Solving for hs, Initial residual = 0.0155629, Final residual = 6.82702e-08, No Iterations 5
GAMG:  Solving for p_rgh, Initial residual = 0.403895, Final residual = 0.0021389, No Iterations 4
diagonal:  Solving for rho, Initial residual = 0, Final residual = 0, No Iterations 0
time step continuity errors : sum local = 3.77677e-05, global = 6.87725e-07, cumulative = 1.60114e-05
GAMG:  Solving for p_rgh, Initial residual = 0.112908, Final residual = 4.65586e-08, No Iterations 17
diagonal:  Solving for rho, Initial residual = 0, Final residual = 0, No Iterations 0
time step continuity errors : sum local = 7.61937e-10, global = -3.40925e-10, cumulative = 1.60111e-05
smoothSolver:  Solving for k, Initial residual = 0.0203938, Final residual = 9.70932e-08, No Iterations 15
ExecutionTime = 0.36 s  ClockTime = 0 s

Courant Number mean: 0.40264 max: 0.919393
deltaT = 0.000497156
Time = 0.0107247

diagonal:  Solving for rho, Initial residual = 0, Final residual = 0, No Iterations 0
smoothSolver:  Solving for Ux, Initial residual = 0.0487571, Final residual = 9.38323e-08, No Iterations 26
smoothSolver:  Solving for Uy, Initial residual = 0.0141938, Final residual = 7.46427e-08, No Iterations 27
smoothSolver:  Solving for O2, Initial residual = 0.00508727, Final residual = 9.30632e-08, No Iterations 25
max of O2 = 0.23301
min of O2 = 0
smoothSolver:  Solving for H2O, Initial residual = 0.0337168, Final residual = 2.82956e-11, No Iterations 1
max of H2O = 0.0785699
min of H2O = -1.05798e-06
smoothSolver:  Solving for CH4, Initial residual = 0.00670953, Final residual = 6.52707e-08, No Iterations 22
max of CH4 = 1
min of CH4 = 0
smoothSolver:  Solving for CO2, Initial residual = 0.0337168, Final residual = 2.31654e-11, No Iterations 1
max of CO2 = 0.0959701
min of CO2 = -1.2923e-06
max of N2 = 0.822143
min of N2 = 0
DILUPBiCG:  Solving for hs, Initial residual = 0.0156892, Final residual = 1.87133e-09, No Iterations 6
GAMG:  Solving for p_rgh, Initial residual = 0.469378, Final residual = 0.00319734, No Iterations 4
diagonal:  Solving for rho, Initial residual = 0, Final residual = 0, No Iterations 0
time step continuity errors : sum local = 5.4474e-05, global = -7.62439e-07, cumulative = 1.52486e-05
GAMG:  Solving for p_rgh, Initial residual = 0.124993, Final residual = 9.42088e-08, No Iterations 16
diagonal:  Solving for rho, Initial residual = 0, Final residual = 0, No Iterations 0
time step continuity errors : sum local = 1.51482e-09, global = 4.61031e-10, cumulative = 1.52491e-05
smoothSolver:  Solving for k, Initial residual = 0.0212428, Final residual = 8.42625e-08, No Iterations 16
ExecutionTime = 0.38 s  ClockTime = 0 s

Courant Number mean: 0.41389 max: 0.917614
deltaT = 0.000538018
Time = 0.0112627

diagonal:  Solving for rho, Initial residual = 0, Final residual = 0, No Iterations 0
smoothSolver:  Solving for Ux, Initial residual = 0.0465936, Final residual = 9.12552e-08, No Iterations 29
smoothSolver:  Solving for Uy, Initial residual = 0.0191103, Final residual = 9.14776e-08, No Iterations 29
smoothSolver:  Solving for O2, Initial residual = 0.00515671, Final residual = 8.65553e-08, No Iterations 27
max of O2 = 0.23301
min of O2 = 0
smoothSolver:  Solving for H2O, Initial residual = 0.0371504, Final residual = 4.47651e-11, No Iterations 1
max of H2O = 0.0774778
min of H2O = -1.05797e-06
smoothSolver:  Solving for CH4, Initial residual = 0.00696691, Final residual = 8.59411e-08, No Iterations 23
max of CH4 = 1
min of CH4 = 0
smoothSolver:  Solving for CO2, Initial residual = 0.0371504, Final residual = 3.66488e-11, No Iterations 1
max of CO2 = 0.0946362
min of CO2 = -1.29229e-06
max of N2 = 0.825709
min of N2 = 0
DILUPBiCG:  Solving for hs, Initial residual = 0.0160669, Final residual = 9.56411e-08, No Iterations 5
GAMG:  Solving for p_rgh, Initial residual = 0.461938, Final residual = 0.00304614, No Iterations 4
diagonal:  Solving for rho, Initial residual = 0, Final residual = 0, No Iterations 0
time step continuity errors : sum local = 5.69131e-05, global = 2.09354e-06, cumulative = 1.73426e-05
GAMG:  Solving for p_rgh, Initial residual = 0.102483, Final residual = 7.6272e-08, No Iterations 17
diagonal:  Solving for rho, Initial residual = 0, Final residual = 0, No Iterations 0
time step continuity errors : sum local = 1.71905e-09, global = 5.10391e-10, cumulative = 1.73431e-05
smoothSolver:  Solving for k, Initial residual = 0.0222931, Final residual = 7.38306e-08, No Iterations 17
ExecutionTime = 0.39 s  ClockTime = 0 s

Courant Number mean: 0.421721 max: 0.901377
deltaT = 0.000595959
Time = 0.0118586

diagonal:  Solving for rho, Initial residual = 0, Final residual = 0, No Iterations 0
smoothSolver:  Solving for Ux, Initial residual = 0.0585747, Final residual = 7.42028e-08, No Iterations 37
smoothSolver:  Solving for Uy, Initial residual = 0.0133329, Final residual = 8.39077e-08, No Iterations 28
smoothSolver:  Solving for O2, Initial residual = 0.00527813, Final residual = 7.42529e-08, No Iterations 30
max of O2 = 0.23301
min of O2 = 0
smoothSolver:  Solving for H2O, Initial residual = 0.040368, Final residual = 6.96096e-11, No Iterations 1
max of H2O = 0.0763276
min of H2O = -1.05797e-06
smoothSolver:  Solving for CH4, Initial residual = 0.0073325, Final residual = 9.65364e-08, No Iterations 25
max of CH4 = 1
min of CH4 = 0
smoothSolver:  Solving for CO2, Initial residual = 0.040368, Final residual = 5.69888e-11, No Iterations 1
max of CO2 = 0.0932313
min of CO2 = -1.29228e-06
max of N2 = 0.830192
min of N2 = 0
DILUPBiCG:  Solving for hs, Initial residual = 0.0167471, Final residual = 3.76294e-08, No Iterations 6
GAMG:  Solving for p_rgh, Initial residual = 0.445005, Final residual = 0.00168417, No Iterations 4
diagonal:  Solving for rho, Initial residual = 0, Final residual = 0, No Iterations 0
time step continuity errors : sum local = 3.74555e-05, global = 4.44526e-06, cumulative = 2.17884e-05
GAMG:  Solving for p_rgh, Initial residual = 0.137143, Final residual = 4.74097e-08, No Iterations 19
diagonal:  Solving for rho, Initial residual = 0, Final residual = 0, No Iterations 0
time step continuity errors : sum local = 8.94126e-10, global = -4.21473e-10, cumulative = 2.1788e-05
smoothSolver:  Solving for k, Initial residual = 0.0241131, Final residual = 7.07988e-08, No Iterations 18
ExecutionTime = 0.4 s  ClockTime = 0 s

Courant Number mean: 0.431879 max: 0.946907
deltaT = 0.000625268
Time = 0.0124839

diagonal:  Solving for rho, Initial residual = 0, Final residual = 0, No Iterations 0
smoothSolver:  Solving for Ux, Initial residual = 0.0530818, Final residual = 7.72746e-08, No Iterations 36
smoothSolver:  Solving for Uy, Initial residual = 0.0194238, Final residual = 8.40324e-08, No Iterations 30
smoothSolver:  Solving for O2, Initial residual = 0.00523813, Final residual = 8.64395e-08, No Iterations 31
max of O2 = 0.23301
min of O2 = 0
smoothSolver:  Solving for H2O, Initial residual = 0.0426978, Final residual = 9.76632e-11, No Iterations 1
max of H2O = 0.0753698
min of H2O = -1.05794e-06
smoothSolver:  Solving for CH4, Initial residual = 0.00728782, Final residual = 9.78772e-08, No Iterations 26
max of CH4 = 1
min of CH4 = 0
smoothSolver:  Solving for CO2, Initial residual = 0.0426978, Final residual = 7.99559e-11, No Iterations 1
max of CO2 = 0.0920614
min of CO2 = -1.29226e-06
max of N2 = 0.834517
min of N2 = 0
DILUPBiCG:  Solving for hs, Initial residual = 0.0163582, Final residual = 9.6223e-08, No Iterations 5
GAMG:  Solving for p_rgh, Initial residual = 0.41511, Final residual = 0.00143967, No Iterations 4
diagonal:  Solving for rho, Initial residual = 0, Final residual = 0, No Iterations 0
time step continuity errors : sum local = 2.91569e-05, global = -2.04379e-06, cumulative = 1.97442e-05
GAMG:  Solving for p_rgh, Initial residual = 0.116952, Final residual = 9.06798e-08, No Iterations 16
diagonal:  Solving for rho, Initial residual = 0, Final residual = 0, No Iterations 0
time step continuity errors : sum local = 1.80747e-09, global = -1.61716e-10, cumulative = 1.9744e-05
smoothSolver:  Solving for k, Initial residual = 0.0247801, Final residual = 9.45076e-08, No Iterations 18
ExecutionTime = 0.41 s  ClockTime = 0 s

Courant Number mean: 0.420887 max: 0.938544
deltaT = 0.000658177
Time = 0.0131421

diagonal:  Solving for rho, Initial residual = 0, Final residual = 0, No Iterations 0
smoothSolver:  Solving for Ux, Initial residual = 0.0651389, Final residual = 9.91634e-08, No Iterations 39
smoothSolver:  Solving for Uy, Initial residual = 0.0170531, Final residual = 7.65895e-08, No Iterations 31
smoothSolver:  Solving for O2, Initial residual = 0.00521713, Final residual = 7.4695e-08, No Iterations 33
max of O2 = 0.23301
min of O2 = 0
smoothSolver:  Solving for H2O, Initial residual = 0.0492132, Final residual = 1.57368e-10, No Iterations 1
max of H2O = 0.0744528
min of H2O = -1.05796e-06
smoothSolver:  Solving for CH4, Initial residual = 0.00730768, Final residual = 7.60275e-08, No Iterations 28
max of CH4 = 1
min of CH4 = 0
smoothSolver:  Solving for CO2, Initial residual = 0.0492132, Final residual = 1.28835e-10, No Iterations 1
max of CO2 = 0.0909412
min of CO2 = -1.29227e-06
max of N2 = 0.840414
min of N2 = 0
DILUPBiCG:  Solving for hs, Initial residual = 0.015983, Final residual = 2.79185e-08, No Iterations 6
GAMG:  Solving for p_rgh, Initial residual = 0.448097, Final residual = 0.00378704, No Iterations 4
diagonal:  Solving for rho, Initial residual = 0, Final residual = 0, No Iterations 0
time step continuity errors : sum local = 7.56327e-05, global = -1.6014e-05, cumulative = 3.73001e-06
GAMG:  Solving for p_rgh, Initial residual = 0.120182, Final residual = 4.04293e-08, No Iterations 19
diagonal:  Solving for rho, Initial residual = 0, Final residual = 0, No Iterations 0
time step continuity errors : sum local = 7.59531e-10, global = -3.51058e-10, cumulative = 3.72966e-06
smoothSolver:  Solving for k, Initial residual = 0.0258883, Final residual = 7.48712e-08, No Iterations 19
ExecutionTime = 0.42 s  ClockTime = 0 s

Courant Number mean: 0.41395 max: 0.910488
deltaT = 0.000722704
Time = 0.0138648

diagonal:  Solving for rho, Initial residual = 0, Final residual = 0, No Iterations 0
smoothSolver:  Solving for Ux, Initial residual = 0.0600013, Final residual = 7.84629e-08, No Iterations 40
smoothSolver:  Solving for Uy, Initial residual = 0.0311546, Final residual = 9.19692e-08, No Iterations 40
smoothSolver:  Solving for O2, Initial residual = 0.00529019, Final residual = 9.86582e-08, No Iterations 35
max of O2 = 0.23301
min of O2 = 0
smoothSolver:  Solving for H2O, Initial residual = 0.0548702, Final residual = 2.53017e-10, No Iterations 1
max of H2O = 0.0734792
min of H2O = -1.0579e-06
smoothSolver:  Solving for CH4, Initial residual = 0.00770812, Final residual = 9.44684e-08, No Iterations 30
max of CH4 = 1
min of CH4 = 0
smoothSolver:  Solving for CO2, Initial residual = 0.0548702, Final residual = 2.07143e-10, No Iterations 1
max of CO2 = 0.089752
min of CO2 = -1.29223e-06
max of N2 = 0.846458
min of N2 = 0
DILUPBiCG:  Solving for hs, Initial residual = 0.0164873, Final residual = 3.66086e-08, No Iterations 6
GAMG:  Solving for p_rgh, Initial residual = 0.405333, Final residual = 0.00194088, No Iterations 5
diagonal:  Solving for rho, Initial residual = 0, Final residual = 0, No Iterations 0
time step continuity errors : sum local = 4.07555e-05, global = -4.73181e-06, cumulative = -1.00215e-06
GAMG:  Solving for p_rgh, Initial residual = 0.123981, Final residual = 9.93515e-08, No Iterations 19
diagonal:  Solving for rho, Initial residual = 0, Final residual = 0, No Iterations 0
time step continuity errors : sum local = 2.02111e-09, global = 9.40217e-10, cumulative = -1.00121e-06
smoothSolver:  Solving for k, Initial residual = 0.0277627, Final residual = 7.41414e-08, No Iterations 20
ExecutionTime = 0.44 s  ClockTime = 0 s

Courant Number mean: 0.425395 max: 0.898537
deltaT = 0.000803005
Time = 0.0146678

diagonal:  Solving for rho, Initial residual = 0, Final residual = 0, No Iterations 0
smoothSolver:  Solving for Ux, Initial residual = 0.0771309, Final residual = 9.08813e-08, No Iterations 51
smoothSolver:  Solving for Uy, Initial residual = 0.0193266, Final residual = 8.78476e-08, No Iterations 37
smoothSolver:  Solving for O2, Initial residual = 0.00547982, Final residual = 8.2056e-08, No Iterations 39
max of O2 = 0.23301
min of O2 = 0
smoothSolver:  Solving for H2O, Initial residual = 0.0586131, Final residual = 3.76806e-10, No Iterations 1
max of H2O = 0.0724506
min of H2O = -1.05794e-06
smoothSolver:  Solving for CH4, Initial residual = 0.00817794, Final residual = 9.73538e-08, No Iterations 33
max of CH4 = 1
min of CH4 = 0
smoothSolver:  Solving for CO2, Initial residual = 0.0586131, Final residual = 3.08488e-10, No Iterations 1
max of CO2 = 0.0884956
min of CO2 = -1.29225e-06
max of N2 = 0.851747
min of N2 = 0
DILUPBiCG:  Solving for hs, Initial residual = 0.0171785, Final residual = 4.47488e-08, No Iterations 6
GAMG:  Solving for p_rgh, Initial residual = 0.422821, Final residual = 0.00308583, No Iterations 4
diagonal:  Solving for rho, Initial residual = 0, Final residual = 0, No Iterations 0
time step continuity errors : sum local = 6.67968e-05, global = -8.2486e-06, cumulative = -9.24982e-06
GAMG:  Solving for p_rgh, Initial residual = 0.127734, Final residual = 8.6988e-08, No Iterations 19
diagonal:  Solving for rho, Initial residual = 0, Final residual = 0, No Iterations 0
time step continuity errors : sum local = 1.72586e-09, global = -7.91295e-10, cumulative = -9.25061e-06
smoothSolver:  Solving for k, Initial residual = 0.0303266, Final residual = 7.08148e-08, No Iterations 21
ExecutionTime = 0.45 s  ClockTime = 0 s

Courant Number mean: 0.41726 max: 0.884904
deltaT = 0.000883305
Time = 0.0155511

diagonal:  Solving for rho, Initial residual = 0, Final residual = 0, No Iterations 0
smoothSolver:  Solving for Ux, Initial residual = 0.0731345, Final residual = 8.46121e-08, No Iterations 51
smoothSolver:  Solving for Uy, Initial residual = 0.0260983, Final residual = 9.23143e-08, No Iterations 35
smoothSolver:  Solving for O2, Initial residual = 0.00543558, Final residual = 8.49658e-08, No Iterations 42
max of O2 = 0.23301
min of O2 = 0
smoothSolver:  Solving for H2O, Initial residual = 0.0716786, Final residual = 6.13642e-10, No Iterations 1
max of H2O = 0.0716014
min of H2O = -1.05786e-06
smoothSolver:  Solving for CH4, Initial residual = 0.00842189, Final residual = 8.9798e-08, No Iterations 36
max of CH4 = 1
min of CH4 = 0
smoothSolver:  Solving for CO2, Initial residual = 0.0716786, Final residual = 5.02383e-10, No Iterations 1
max of CO2 = 0.0874583
min of CO2 = -1.2922e-06
max of N2 = 0.856517
min of N2 = 0
DILUPBiCG:  Solving for hs, Initial residual = 0.0169765, Final residual = 1.56264e-08, No Iterations 7
GAMG:  Solving for p_rgh, Initial residual = 0.390463, Final residual = 0.00189125, No Iterations 4
diagonal:  Solving for rho, Initial residual = 0, Final residual = 0, No Iterations 0
time step continuity errors : sum local = 4.26134e-05, global = -1.86152e-05, cumulative = -2.78658e-05
GAMG:  Solving for p_rgh, Initial residual = 0.106784, Final residual = 4.89497e-08, No Iterations 18
diagonal:  Solving for rho, Initial residual = 0, Final residual = 0, No Iterations 0
time step continuity errors : sum local = 1.00134e-09, global = 4.97945e-10, cumulative = -2.78653e-05
smoothSolver:  Solving for k, Initial residual = 0.0330294, Final residual = 7.08053e-08, No Iterations 22
ExecutionTime = 0.46 s  ClockTime = 0 s

Courant Number mean: 0.418411 max: 0.847205
deltaT = 0.000984255
Time = 0.0165353

diagonal:  Solving for rho, Initial residual = 0, Final residual = 0, No Iterations 0
smoothSolver:  Solving for Ux, Initial residual = 0.0775038, Final residual = 9.25989e-08, No Iterations 51
smoothSolver:  Solving for Uy, Initial residual = 0.0363668, Final residual = 8.44864e-08, No Iterations 53
smoothSolver:  Solving for O2, Initial residual = 0.00554766, Final residual = 8.15527e-08, No Iterations 46
max of O2 = 0.23301
min of O2 = 0
smoothSolver:  Solving for H2O, Initial residual = 0.0752104, Final residual = 8.78188e-10, No Iterations 1
max of H2O = 0.0707257
min of H2O = -1.05787e-06
smoothSolver:  Solving for CH4, Initial residual = 0.00893997, Final residual = 8.21623e-08, No Iterations 40
max of CH4 = 1
min of CH4 = 0
smoothSolver:  Solving for CO2, Initial residual = 0.0752105, Final residual = 7.18965e-10, No Iterations 1
max of CO2 = 0.0863887
min of CO2 = -1.29217e-06
max of N2 = 0.860926
min of N2 = 0
DILUPBiCG:  Solving for hs, Initial residual = 0.0172616, Final residual = 6.5067e-08, No Iterations 7
GAMG:  Solving for p_rgh, Initial residual = 0.450584, Final residual = 0.00265574, No Iterations 5
diagonal:  Solving for rho, Initial residual = 0, Final residual = 0, No Iterations 0
time step continuity errors : sum local = 6.07921e-05, global = 1.14578e-05, cumulative = -1.64075e-05
GAMG:  Solving for p_rgh, Initial residual = 0.119146, Final residual = 6.57991e-08, No Iterations 18
diagonal:  Solving for rho, Initial residual = 0, Final residual = 0, No Iterations 0
time step continuity errors : sum local = 1.43329e-09, global = 6.5759e-10, cumulative = -1.64068e-05
smoothSolver:  Solving for k, Initial residual = 0.0361643, Final residual = 7.56493e-08, No Iterations 23
ExecutionTime = 0.47 s  ClockTime = 0 s

Courant Number mean: 0.428581 max: 0.883511
deltaT = 0.0010795
Time = 0.0176149

diagonal:  Solving for rho, Initial residual = 0, Final residual = 0, No Iterations 0
smoothSolver:  Solving for Ux, Initial residual = 0.073298, Final residual = 8.96194e-08, No Iterations 60
smoothSolver:  Solving for Uy, Initial residual = 0.0366193, Final residual = 9.91564e-08, No Iterations 55
smoothSolver:  Solving for O2, Initial residual = 0.00573671, Final residual = 8.83035e-08, No Iterations 49
max of O2 = 0.23301
min of O2 = 0
smoothSolver:  Solving for H2O, Initial residual = 0.0501493, Final residual = 7.20702e-10, No Iterations 1
max of H2O = 0.0698154
min of H2O = -1.05788e-06
smoothSolver:  Solving for CH4, Initial residual = 0.00923188, Final residual = 8.18543e-08, No Iterations 43
max of CH4 = 1
min of CH4 = 0
smoothSolver:  Solving for CO2, Initial residual = 0.0501492, Final residual = 5.90031e-10, No Iterations 1
max of CO2 = 0.0852768
min of CO2 = -1.2922e-06
max of N2 = 0.86475
min of N2 = 0
DILUPBiCG:  Solving for hs, Initial residual = 0.0174957, Final residual = 8.14479e-10, No Iterations 8
GAMG:  Solving for p_rgh, Initial residual = 0.420734, Final residual = 0.00229134, No Iterations 5
diagonal:  Solving for rho, Initial residual = 0, Final residual = 0, No Iterations 0
time step continuity errors : sum local = 4.8195e-05, global = 1.69491e-05, cumulative = 5.42264e-07
GAMG:  Solving for p_rgh, Initial residual = 0.107107, Final residual = 6.19348e-08, No Iterations 18
diagonal:  Solving for rho, Initial residual = 0, Final residual = 0, No Iterations 0
time step continuity errors : sum local = 1.24415e-09, global = -6.44864e-10, cumulative = 5.41619e-07
smoothSolver:  Solving for k, Initial residual = 0.0387455, Final residual = 7.34341e-08, No Iterations 24
ExecutionTime = 0.49 s  ClockTime = 0 s

Courant Number mean: 0.422746 max: 0.909247
deltaT = 0.00115661
Time = 0.0187715

diagonal:  Solving for rho, Initial residual = 0, Final residual = 0, No Iterations 0
smoothSolver:  Solving for Ux, Initial residual = 0.0785553, Final residual = 9.53913e-08, No Iterations 68
smoothSolver:  Solving for Uy, Initial residual = 0.0325754, Final residual = 9.60529e-08, No Iterations 55
smoothSolver:  Solving for O2, Initial residual = 0.00580029, Final residual = 8.07261e-08, No Iterations 52
max of O2 = 0.23301
min of O2 = 0
smoothSolver:  Solving for H2O, Initial residual = 0.0648638, Final residual = 7.79784e-10, No Iterations 1
max of H2O = 0.0688856
min of H2O = -1.0579e-06
smoothSolver:  Solving for CH4, Initial residual = 0.00921238, Final residual = 8.41915e-08, No Iterations 45
max of CH4 = 1
min of CH4 = 0
smoothSolver:  Solving for CO2, Initial residual = 0.0648641, Final residual = 6.38406e-10, No Iterations 1
max of CO2 = 0.0841411
min of CO2 = -1.2922e-06
max of N2 = 0.868419
min of N2 = 0
DILUPBiCG:  Solving for hs, Initial residual = 0.01724, Final residual = 6.97151e-08, No Iterations 7
GAMG:  Solving for p_rgh, Initial residual = 0.32323, Final residual = 0.00258962, No Iterations 4
diagonal:  Solving for rho, Initial residual = 0, Final residual = 0, No Iterations 0
[...]
max of O2 = 0.23301
min of O2 = 0
smoothSolver:  Solving for H2O, Initial residual = 8.90741e-05, Final residual = 7.21762e-09, No Iterations 1
max of H2O = 0.0994668
min of H2O = -8.8642e-07
smoothSolver:  Solving for CH4, Initial residual = 3.61617e-05, Final residual = 7.1486e-08, No Iterations 14
max of CH4 = 1
min of CH4 = 0
smoothSolver:  Solving for CO2, Initial residual = 8.93208e-05, Final residual = 6.0486e-09, No Iterations 1
max of CO2 = 0.121273
min of CO2 = -1.09422e-06
max of N2 = 0.766992
min of N2 = 0
DILUPBiCG:  Solving for hs, Initial residual = 5.79601e-05, Final residual = 1.11506e-08, No Iterations 4
GAMG:  Solving for p_rgh, Initial residual = 0.0026848, Final residual = 1.08119e-05, No Iterations 4
diagonal:  Solving for rho, Initial residual = 0, Final residual = 0, No Iterations 0
time step continuity errors : sum local = 7.68575e-08, global = -2.11197e-08, cumulative = -7.50161e-05
GAMG:  Solving for p_rgh, Initial residual = 0.0004498, Final residual = 6.25801e-08, No Iterations 10
diagonal:  Solving for rho, Initial residual = 0, Final residual = 0, No Iterations 0
time step continuity errors : sum local = 4.62456e-10, global = 6.68187e-11, cumulative = -7.5016e-05
smoothSolver:  Solving for k, Initial residual = 0.000298258, Final residual = 6.78042e-08, No Iterations 16
ExecutionTime = 2.53 s  ClockTime = 2 s

Courant Number mean: 0.371041 max: 0.994476
deltaT = 0.0016129
Time = 0.285484

diagonal:  Solving for rho, Initial residual = 0, Final residual = 0, No Iterations 0
smoothSolver:  Solving for Ux, Initial residual = 5.89916e-05, Final residual = 8.44032e-08, No Iterations 23
smoothSolver:  Solving for Uy, Initial residual = 3.28079e-05, Final residual = 7.97777e-08, No Iterations 17
smoothSolver:  Solving for O2, Initial residual = 1.19337e-05, Final residual = 9.70817e-08, No Iterations 14
max of O2 = 0.23301
min of O2 = 0
smoothSolver:  Solving for H2O, Initial residual = 8.57051e-05, Final residual = 7.11113e-09, No Iterations 1
max of H2O = 0.0995759
min of H2O = -8.84909e-07
smoothSolver:  Solving for CH4, Initial residual = 3.45623e-05, Final residual = 7.09079e-08, No Iterations 14
max of CH4 = 1
min of CH4 = 0
smoothSolver:  Solving for CO2, Initial residual = 8.59397e-05, Final residual = 5.95929e-09, No Iterations 1
max of CO2 = 0.121409
min of CO2 = -1.09151e-06
max of N2 = 0.766992
min of N2 = 0
DILUPBiCG:  Solving for hs, Initial residual = 5.45407e-05, Final residual = 8.47344e-09, No Iterations 4
GAMG:  Solving for p_rgh, Initial residual = 0.00287743, Final residual = 2.15038e-05, No Iterations 3
diagonal:  Solving for rho, Initial residual = 0, Final residual = 0, No Iterations 0
time step continuity errors : sum local = 1.52784e-07, global = -2.48255e-08, cumulative = -7.50409e-05
GAMG:  Solving for p_rgh, Initial residual = 0.000446171, Final residual = 8.46816e-08, No Iterations 8
diagonal:  Solving for rho, Initial residual = 0, Final residual = 0, No Iterations 0
time step continuity errors : sum local = 6.30298e-10, global = -8.09134e-11, cumulative = -7.50409e-05
smoothSolver:  Solving for k, Initial residual = 0.000285403, Final residual = 6.48612e-08, No Iterations 16
ExecutionTime = 2.54 s  ClockTime = 2 s

Courant Number mean: 0.371077 max: 0.994614
deltaT = 0.0016129
Time = 0.287097

diagonal:  Solving for rho, Initial residual = 0, Final residual = 0, No Iterations 0
smoothSolver:  Solving for Ux, Initial residual = 5.67618e-05, Final residual = 8.87848e-08, No Iterations 21
smoothSolver:  Solving for Uy, Initial residual = 2.99487e-05, Final residual = 8.52827e-08, No Iterations 18
smoothSolver:  Solving for O2, Initial residual = 1.14313e-05, Final residual = 9.79345e-08, No Iterations 14
max of O2 = 0.23301
min of O2 = 0
smoothSolver:  Solving for H2O, Initial residual = 8.251e-05, Final residual = 7.01066e-09, No Iterations 1
max of H2O = 0.0996837
min of H2O = -8.83498e-07
smoothSolver:  Solving for CH4, Initial residual = 3.33567e-05, Final residual = 7.07486e-08, No Iterations 14
max of CH4 = 1
min of CH4 = 0
smoothSolver:  Solving for CO2, Initial residual = 8.27327e-05, Final residual = 5.87493e-09, No Iterations 1
max of CO2 = 0.121544
min of CO2 = -1.0899e-06
max of N2 = 0.766993
min of N2 = 0
DILUPBiCG:  Solving for hs, Initial residual = 5.2009e-05, Final residual = 7.67751e-09, No Iterations 4
GAMG:  Solving for p_rgh, Initial residual = 0.00258409, Final residual = 1.84419e-05, No Iterations 3
diagonal:  Solving for rho, Initial residual = 0, Final residual = 0, No Iterations 0
time step continuity errors : sum local = 1.30954e-07, global = 3.32312e-08, cumulative = -7.50077e-05
GAMG:  Solving for p_rgh, Initial residual = 0.000356107, Final residual = 6.74861e-08, No Iterations 9
diagonal:  Solving for rho, Initial residual = 0, Final residual = 0, No Iterations 0
time step continuity errors : sum local = 5.16674e-10, global = -1.12592e-10, cumulative = -7.50078e-05
smoothSolver:  Solving for k, Initial residual = 0.000273285, Final residual = 6.23354e-08, No Iterations 16
ExecutionTime = 2.55 s  ClockTime = 2 s

Courant Number mean: 0.371107 max: 0.994738
deltaT = 0.0016129
Time = 0.28871

diagonal:  Solving for rho, Initial residual = 0, Final residual = 0, No Iterations 0
smoothSolver:  Solving for Ux, Initial residual = 5.2813e-05, Final residual = 9.82984e-08, No Iterations 22
smoothSolver:  Solving for Uy, Initial residual = 2.70296e-05, Final residual = 9.82145e-08, No Iterations 15
smoothSolver:  Solving for O2, Initial residual = 1.11893e-05, Final residual = 7.64422e-08, No Iterations 15
max of O2 = 0.23301
min of O2 = 0
smoothSolver:  Solving for H2O, Initial residual = 7.9479e-05, Final residual = 6.91446e-09, No Iterations 1
max of H2O = 0.09979
min of H2O = -8.81778e-07
smoothSolver:  Solving for CH4, Initial residual = 3.23428e-05, Final residual = 9.967e-08, No Iterations 13
max of CH4 = 1
min of CH4 = 0
smoothSolver:  Solving for CO2, Initial residual = 7.96904e-05, Final residual = 5.7941e-09, No Iterations 1
max of CO2 = 0.121677
min of CO2 = -1.088e-06
max of N2 = 0.766992
min of N2 = 0
DILUPBiCG:  Solving for hs, Initial residual = 5.01714e-05, Final residual = 7.06905e-09, No Iterations 4
GAMG:  Solving for p_rgh, Initial residual = 0.00210357, Final residual = 6.42019e-06, No Iterations 4
diagonal:  Solving for rho, Initial residual = 0, Final residual = 0, No Iterations 0
time step continuity errors : sum local = 4.56136e-08, global = 1.11647e-08, cumulative = -7.49967e-05
GAMG:  Solving for p_rgh, Initial residual = 0.000308397, Final residual = 7.92817e-08, No Iterations 9
diagonal:  Solving for rho, Initial residual = 0, Final residual = 0, No Iterations 0
time step continuity errors : sum local = 5.85367e-10, global = 1.71975e-10, cumulative = -7.49965e-05
smoothSolver:  Solving for k, Initial residual = 0.000261015, Final residual = 9.81931e-08, No Iterations 15
ExecutionTime = 2.56 s  ClockTime = 2 s

Courant Number mean: 0.371144 max: 0.9949
deltaT = 0.0016129
Time = 0.290323

diagonal:  Solving for rho, Initial residual = 0, Final residual = 0, No Iterations 0
smoothSolver:  Solving for Ux, Initial residual = 4.97255e-05, Final residual = 8.12711e-08, No Iterations 23
smoothSolver:  Solving for Uy, Initial residual = 2.60536e-05, Final residual = 8.61121e-08, No Iterations 14
smoothSolver:  Solving for O2, Initial residual = 1.10582e-05, Final residual = 7.66436e-08, No Iterations 15
max of O2 = 0.23301
min of O2 = 0
smoothSolver:  Solving for H2O, Initial residual = 7.65541e-05, Final residual = 6.82045e-09, No Iterations 1
max of H2O = 0.0998949
min of H2O = -8.78552e-07
smoothSolver:  Solving for CH4, Initial residual = 3.13728e-05, Final residual = 9.7638e-08, No Iterations 13
max of CH4 = 1
min of CH4 = 0
smoothSolver:  Solving for CO2, Initial residual = 7.67553e-05, Final residual = 5.71517e-09, No Iterations 1
max of CO2 = 0.121808
min of CO2 = -1.08467e-06
max of N2 = 0.766992
min of N2 = 0
DILUPBiCG:  Solving for hs, Initial residual = 4.89637e-05, Final residual = 7.0176e-09, No Iterations 4
GAMG:  Solving for p_rgh, Initial residual = 0.00134756, Final residual = 9.34646e-06, No Iterations 4
diagonal:  Solving for rho, Initial residual = 0, Final residual = 0, No Iterations 0
time step continuity errors : sum local = 6.64015e-08, global = -3.21404e-09, cumulative = -7.49997e-05
GAMG:  Solving for p_rgh, Initial residual = 0.000242163, Final residual = 4.81142e-08, No Iterations 9
diagonal:  Solving for rho, Initial residual = 0, Final residual = 0, No Iterations 0
time step continuity errors : sum local = 3.77532e-10, global = -1.13275e-10, cumulative = -7.49998e-05
smoothSolver:  Solving for k, Initial residual = 0.000249258, Final residual = 9.36138e-08, No Iterations 15
ExecutionTime = 2.57 s  ClockTime = 2 s

Courant Number mean: 0.371183 max: 0.995055
deltaT = 0.0016129
Time = 0.291935

diagonal:  Solving for rho, Initial residual = 0, Final residual = 0, No Iterations 0
smoothSolver:  Solving for Ux, Initial residual = 4.68601e-05, Final residual = 9.53582e-08, No Iterations 22
smoothSolver:  Solving for Uy, Initial residual = 2.31808e-05, Final residual = 9.97495e-08, No Iterations 12
smoothSolver:  Solving for O2, Initial residual = 1.11372e-05, Final residual = 7.71684e-08, No Iterations 15
max of O2 = 0.23301
min of O2 = 0
smoothSolver:  Solving for H2O, Initial residual = 7.37168e-05, Final residual = 6.72885e-09, No Iterations 1
max of H2O = 0.0999983
min of H2O = -8.78975e-07
smoothSolver:  Solving for CH4, Initial residual = 3.04461e-05, Final residual = 9.5615e-08, No Iterations 13
max of CH4 = 1
min of CH4 = 0
smoothSolver:  Solving for CO2, Initial residual = 7.39079e-05, Final residual = 5.63821e-09, No Iterations 1
max of CO2 = 0.121937
min of CO2 = -1.08515e-06
max of N2 = 0.766992
min of N2 = 0
DILUPBiCG:  Solving for hs, Initial residual = 4.80415e-05, Final residual = 7.24488e-09, No Iterations 4
GAMG:  Solving for p_rgh, Initial residual = 0.00109747, Final residual = 4.16786e-06, No Iterations 4
diagonal:  Solving for rho, Initial residual = 0, Final residual = 0, No Iterations 0
time step continuity errors : sum local = 2.96099e-08, global = -6.37772e-10, cumulative = -7.50004e-05
GAMG:  Solving for p_rgh, Initial residual = 0.000206372, Final residual = 5.63782e-08, No Iterations 8
diagonal:  Solving for rho, Initial residual = 0, Final residual = 0, No Iterations 0
time step continuity errors : sum local = 4.40624e-10, global = -8.77892e-11, cumulative = -7.50005e-05
smoothSolver:  Solving for k, Initial residual = 0.00023811, Final residual = 8.93109e-08, No Iterations 15
ExecutionTime = 2.58 s  ClockTime = 2 s

Courant Number mean: 0.371219 max: 0.99519
deltaT = 0.0016129
Time = 0.293548

diagonal:  Solving for rho, Initial residual = 0, Final residual = 0, No Iterations 0
smoothSolver:  Solving for Ux, Initial residual = 4.61402e-05, Final residual = 8.78637e-08, No Iterations 22
smoothSolver:  Solving for Uy, Initial residual = 2.06147e-05, Final residual = 9.28683e-08, No Iterations 12
smoothSolver:  Solving for O2, Initial residual = 1.14136e-05, Final residual = 7.73102e-08, No Iterations 15
max of O2 = 0.23301
min of O2 = 0
smoothSolver:  Solving for H2O, Initial residual = 7.09917e-05, Final residual = 6.63878e-09, No Iterations 1
max of H2O = 0.1001
min of H2O = -8.78975e-07
smoothSolver:  Solving for CH4, Initial residual = 2.97219e-05, Final residual = 9.2657e-08, No Iterations 13
max of CH4 = 1
min of CH4 = 0
smoothSolver:  Solving for CO2, Initial residual = 7.11729e-05, Final residual = 5.56252e-09, No Iterations 1
max of CO2 = 0.122065
min of CO2 = -1.08518e-06
max of N2 = 0.766992
min of N2 = 0
DILUPBiCG:  Solving for hs, Initial residual = 4.80278e-05, Final residual = 9.79089e-08, No Iterations 3
GAMG:  Solving for p_rgh, Initial residual = 0.00122471, Final residual = 4.75095e-06, No Iterations 4
diagonal:  Solving for rho, Initial residual = 0, Final residual = 0, No Iterations 0
time step continuity errors : sum local = 3.37338e-08, global = -7.48585e-09, cumulative = -7.5008e-05
GAMG:  Solving for p_rgh, Initial residual = 0.000281475, Final residual = 5.01408e-08, No Iterations 8
diagonal:  Solving for rho, Initial residual = 0, Final residual = 0, No Iterations 0
time step continuity errors : sum local = 3.93264e-10, global = 1.58452e-10, cumulative = -7.50079e-05
smoothSolver:  Solving for k, Initial residual = 0.000227386, Final residual = 8.531e-08, No Iterations 15
ExecutionTime = 2.59 s  ClockTime = 2 s

Courant Number mean: 0.371255 max: 0.995327
deltaT = 0.0016129
Time = 0.295161

diagonal:  Solving for rho, Initial residual = 0, Final residual = 0, No Iterations 0
smoothSolver:  Solving for Ux, Initial residual = 5.09847e-05, Final residual = 8.15862e-08, No Iterations 23
smoothSolver:  Solving for Uy, Initial residual = 2.33537e-05, Final residual = 7.47932e-08, No Iterations 13
smoothSolver:  Solving for O2, Initial residual = 1.12099e-05, Final residual = 7.80097e-08, No Iterations 15
max of O2 = 0.23301
min of O2 = 0
smoothSolver:  Solving for H2O, Initial residual = 6.83835e-05, Final residual = 6.55095e-09, No Iterations 1
max of H2O = 0.1002
min of H2O = -8.7708e-07
smoothSolver:  Solving for CH4, Initial residual = 2.86633e-05, Final residual = 9.02756e-08, No Iterations 13
max of CH4 = 1
min of CH4 = 0
smoothSolver:  Solving for CO2, Initial residual = 6.85556e-05, Final residual = 5.48871e-09, No Iterations 1
max of CO2 = 0.12219
min of CO2 = -1.08333e-06
max of N2 = 0.766992
min of N2 = 0
DILUPBiCG:  Solving for hs, Initial residual = 4.62596e-05, Final residual = 5.96234e-09, No Iterations 4
GAMG:  Solving for p_rgh, Initial residual = 0.00114351, Final residual = 7.41697e-06, No Iterations 4
diagonal:  Solving for rho, Initial residual = 0, Final residual = 0, No Iterations 0
time step continuity errors : sum local = 5.27023e-08, global = 2.80005e-08, cumulative = -7.49799e-05
GAMG:  Solving for p_rgh, Initial residual = 0.000307993, Final residual = 6.41082e-08, No Iterations 9
diagonal:  Solving for rho, Initial residual = 0, Final residual = 0, No Iterations 0
time step continuity errors : sum local = 4.84487e-10, global = -3.37779e-11, cumulative = -7.49799e-05
smoothSolver:  Solving for k, Initial residual = 0.000216986, Final residual = 8.14005e-08, No Iterations 15
ExecutionTime = 2.6 s  ClockTime = 2 s

Courant Number mean: 0.371293 max: 0.995475
deltaT = 0.0016129
Time = 0.296774

diagonal:  Solving for rho, Initial residual = 0, Final residual = 0, No Iterations 0
smoothSolver:  Solving for Ux, Initial residual = 4.59207e-05, Final residual = 9.80049e-08, No Iterations 22
smoothSolver:  Solving for Uy, Initial residual = 2.83553e-05, Final residual = 9.26165e-08, No Iterations 15
smoothSolver:  Solving for O2, Initial residual = 1.11784e-05, Final residual = 7.80069e-08, No Iterations 15
max of O2 = 0.23301
min of O2 = 0
smoothSolver:  Solving for H2O, Initial residual = 6.58664e-05, Final residual = 6.46454e-09, No Iterations 1
max of H2O = 0.100299
min of H2O = -8.76789e-07
smoothSolver:  Solving for CH4, Initial residual = 2.77397e-05, Final residual = 8.77351e-08, No Iterations 13
max of CH4 = 1
min of CH4 = 0
smoothSolver:  Solving for CO2, Initial residual = 6.60302e-05, Final residual = 5.41612e-09, No Iterations 1
max of CO2 = 0.122313
min of CO2 = -1.08317e-06
max of N2 = 0.766992
min of N2 = 0
DILUPBiCG:  Solving for hs, Initial residual = 4.55226e-05, Final residual = 5.80454e-09, No Iterations 4
GAMG:  Solving for p_rgh, Initial residual = 0.000970422, Final residual = 5.44969e-06, No Iterations 4
diagonal:  Solving for rho, Initial residual = 0, Final residual = 0, No Iterations 0
time step continuity errors : sum local = 3.87595e-08, global = -1.54977e-09, cumulative = -7.49814e-05
GAMG:  Solving for p_rgh, Initial residual = 0.000205155, Final residual = 8.86744e-08, No Iterations 8
diagonal:  Solving for rho, Initial residual = 0, Final residual = 0, No Iterations 0
time step continuity errors : sum local = 6.68374e-10, global = 6.82473e-11, cumulative = -7.49814e-05
smoothSolver:  Solving for k, Initial residual = 0.000207112, Final residual = 7.72982e-08, No Iterations 15
ExecutionTime = 2.61 s  ClockTime = 2 s

Courant Number mean: 0.371329 max: 0.995608
deltaT = 0.0016129
Time = 0.298387

diagonal:  Solving for rho, Initial residual = 0, Final residual = 0, No Iterations 0
smoothSolver:  Solving for Ux, Initial residual = 4.38576e-05, Final residual = 8.8988e-08, No Iterations 22
smoothSolver:  Solving for Uy, Initial residual = 2.29902e-05, Final residual = 7.77077e-08, No Iterations 12
smoothSolver:  Solving for O2, Initial residual = 1.12446e-05, Final residual = 7.76858e-08, No Iterations 15
max of O2 = 0.23301
min of O2 = 0
smoothSolver:  Solving for H2O, Initial residual = 6.34237e-05, Final residual = 6.37843e-09, No Iterations 1
max of H2O = 0.100397
min of H2O = -8.7596e-07
smoothSolver:  Solving for CH4, Initial residual = 2.69291e-05, Final residual = 8.52403e-08, No Iterations 13
max of CH4 = 1
min of CH4 = 0
smoothSolver:  Solving for CO2, Initial residual = 6.35792e-05, Final residual = 5.34379e-09, No Iterations 1
max of CO2 = 0.122435
min of CO2 = -1.0825e-06
max of N2 = 0.766992
min of N2 = 0
DILUPBiCG:  Solving for hs, Initial residual = 4.44199e-05, Final residual = 5.5e-09, No Iterations 4
GAMG:  Solving for p_rgh, Initial residual = 0.00103793, Final residual = 5.22551e-06, No Iterations 4
diagonal:  Solving for rho, Initial residual = 0, Final residual = 0, No Iterations 0
time step continuity errors : sum local = 3.71323e-08, global = -3.77143e-09, cumulative = -7.49851e-05
GAMG:  Solving for p_rgh, Initial residual = 0.000180821, Final residual = 8.54936e-08, No Iterations 7
diagonal:  Solving for rho, Initial residual = 0, Final residual = 0, No Iterations 0
time step continuity errors : sum local = 6.22601e-10, global = 1.24414e-10, cumulative = -7.4985e-05
smoothSolver:  Solving for k, Initial residual = 0.000197795, Final residual = 7.35221e-08, No Iterations 15
ExecutionTime = 2.62 s  ClockTime = 2 s

Courant Number mean: 0.371364 max: 0.995729
deltaT = 0.0016129
Time = 0.3

diagonal:  Solving for rho, Initial residual = 0, Final residual = 0, No Iterations 0
smoothSolver:  Solving for Ux, Initial residual = 4.37595e-05, Final residual = 9.00828e-08, No Iterations 22
smoothSolver:  Solving for Uy, Initial residual = 2.0091e-05, Final residual = 9.35392e-08, No Iterations 11
smoothSolver:  Solving for O2, Initial residual = 1.11187e-05, Final residual = 7.75167e-08, No Iterations 15
max of O2 = 0.23301
min of O2 = 0
smoothSolver:  Solving for H2O, Initial residual = 6.1093e-05, Final residual = 6.29379e-09, No Iterations 1
max of H2O = 0.100493
min of H2O = -8.76626e-07
smoothSolver:  Solving for CH4, Initial residual = 2.60819e-05, Final residual = 8.30393e-08, No Iterations 13
max of CH4 = 1
min of CH4 = 0
smoothSolver:  Solving for CO2, Initial residual = 6.12407e-05, Final residual = 5.27269e-09, No Iterations 1
max of CO2 = 0.122555
min of CO2 = -1.08338e-06
max of N2 = 0.766992
min of N2 = 0
DILUPBiCG:  Solving for hs, Initial residual = 4.33734e-05, Final residual = 9.22619e-08, No Iterations 3
GAMG:  Solving for p_rgh, Initial residual = 0.000974404, Final residual = 5.37173e-06, No Iterations 4
diagonal:  Solving for rho, Initial residual = 0, Final residual = 0, No Iterations 0
time step continuity errors : sum local = 3.8165e-08, global = 1.57038e-09, cumulative = -7.49835e-05
GAMG:  Solving for p_rgh, Initial residual = 0.000174413, Final residual = 8.31192e-08, No Iterations 7
diagonal:  Solving for rho, Initial residual = 0, Final residual = 0, No Iterations 0
time step continuity errors : sum local = 6.22802e-10, global = -6.12478e-11, cumulative = -7.49835e-05
smoothSolver:  Solving for k, Initial residual = 0.000188812, Final residual = 7.00092e-08, No Iterations 15
ExecutionTime = 2.64 s  ClockTime = 2 s

End

