/*---------------------------------------------------------------------------*\
| =========                 |                                                 |
| \\      /  F ield         | OpenFOAM: The Open Source CFD Toolbox           |
|  \\    /   O peration     | Version:  1.7.x                                 |
|   \\  /    A nd           | Web:      www.OpenFOAM.com                      |
|    \\/     M anipulation  |                                                 |
\*---------------------------------------------------------------------------*/
Build  : 1.7.x-868d5097761f
Exec   : fireFoam -parallel
Date   : Jun 28 2011
Time   : 14:55:38
Host   : wangyUbuntu
PID    : 10899
Case   : /home/wangy/OpenFOAM/wangy-1.7.x/run/fireFoam/testBatteryFireFOAM/wallFireSpread2D
nProcs : 2
Slaves : 
1
(
wangyUbuntu.10900
)

Pstream initialized with:
    floatTransfer     : 0
    nProcsSimpleSum   : 0
    commsType         : nonBlocking
SigFpe : Enabling floating point exception trapping (FOAM_SIGFPE).

// * * * * * * * * * * * * * * * * * * * * * * * * * * * * * * * * * * * * * //
FireFOAM Build Version:  7e089fe07967e869491ea46d3d16c03598de516a
FireFOAM Build Time Stamp:  Tue Jun 28 13:18:10 EDT 2011
****************************************************
Create time

Create mesh for time = 0


Reading g
Reading thermophysical properties

Selecting thermodynamics package hsPsiMixtureThermoNew<singleStepReactingMixture<gasThermoPhysics>>
Selecting chemistryReader foamChemistryReader
Fuel heat of combustion :4.63574e+07
Mole based specieStoichCoeffs: 5(-5 4 -1 3 18.8)
stoichiometric air-fuel ratio :15.5715
stoichiometric oxygen-fuel ratio :3.62829
Max products: 5(0 0.0986136 0 0.180679 0.720707)
mass based specieStoichCoeffs: 5(-3.62829 1.63418 -1 2.99414 11.9432)
Creating component thermo properties:
    multi-component carrier - 5 species
    liquids - 1 components
    solids - 0 components
Reading field p_rgh

Reading field U

Reading/calculating face flux field phi

Creating turbulence model

Selecting turbulence model type LESModel
Selecting LES turbulence model oneEqEddy
--> FOAM Warning : 
    From function cubeRootVolDelta::calcDelta()
    in file cubeRootVolDelta/cubeRootVolDelta.C at line 52
    Case is 2D, LES is not strictly applicable

oneEqEddyCoeffs
{
    Prt             1;
    ce              1.048;
    ck              0.094;
}

Creating combustion model

Selecting combustion model infinitelyFastChemistryExplicit
stoichiometric mixture fraction is = 0.0603444
Creating field DpDt

Calculating field g.h

Selecting radiationModel fvDOM
Selecting absorptionEmissionModel greyMeanAbsorptionEmission
Selecting scatterModel constantScatter
fvDOM : Allocated 8 rays with average orientation:
	I0	(0.460076 1.11072 5.88935e-33)
	I1	(1.11072 0.460076 5.88935e-33)
	I2	(1.11072 -0.460076 5.88935e-33)
	I3	(0.460076 -1.11072 5.88935e-33)
	I4	(-0.460076 -1.11072 5.88935e-33)
	I5	(-1.11072 -0.460076 5.88935e-33)
	I6	(-1.11072 0.460076 5.88935e-33)
	I7	(-0.460076 1.11072 5.88935e-33)

Creating pyrolysis model

Selecting pyrolysisModel reactingOneDim
Selecting solidChemistryModel "ODESolidChemistryModel<constSolidThermoPhysics>gasThermoPhysics"
ODESolidChemistryModel: Number of solids = 2 and reactions = 1
Number of gases from pyrolysis = 1
Reaction 0
irreversibleSolidArrheniusReaction
    v = char +  gas
    Reaction order: 4.86
(7.83e+10 15274.6 400)
Selecting ODE solver SIBS

Constructing reacting cloud
Constructing cloud functions
    none
Selecting DispersionModel none
Selecting DragModel SphereDrag
Selecting InjectionModel ConeInjection
    Constructing 2-D injection
Selecting pdfType RosinRammler
Selecting PatchInteractionModel StandardWallInteraction
Selecting SurfaceFilmModel ThermoSurfaceFilm
    Applying absorb interaction model
Selecting U IntegrationScheme Euler
Selecting HeatTransferModel RanzMarshall
Selecting T IntegrationScheme Analytical
Selecting CompositionModel SinglePhaseMixture
Selecting PhaseChangeModel LiquidEvaporation

Constructing surface film model
Selecting surfaceFilmModel none
Courant Number mean: 0 max: 0

Starting time loop

Courant Number mean: 0 max: 0
deltaT = 0.0011976
--> FOAM Warning : 
    From function dlLibraryTable::open(const dictionary& dict, const word& libsEntry, const TablePtr tablePtr)
    in file lnInclude/dlLibraryTableTemplates.C at line 67
    library "libsampling.so" did not introduce any new entries

cellSource HRR:
    total cells  = 800
    total volume = 0.4



faceSource patchBurner:
    total faces  = 4
    total area   = 0.04


faceSource patchPanel:
    total faces  = 10
    total area   = 0.1


faceSource patchOutlet:
    total faces  = 20
    total area   = 0.2


faceSource patchPanelSolidRegion:
    total faces  = 10
    total area   = 0.1


faceSource patchPanelQr:
    total faces  = 10
    total area   = 0.1


faceSource patchWallQr:
    total faces  = 30
    total area   = 0.3


faceSource patchSideQr:
    total faces  = 40
    total area   = 0.4


faceSource patchBurnerQr:
    total faces  = 4
    total area   = 0.04


faceSource patchOutletQr:
    total faces  = 20
    total area   = 0.2


faceSource patchGroundQr:
    total faces  = 16
    total area   = 0.16


Time = 0.0011976

diagonal:  Solving for rho, Initial residual = 0, Final residual = 0, No Iterations 0
DILUPBiCG:  Solving for Ux, Initial residual = 1, Final residual = 2.05601e-10, No Iterations 1
DILUPBiCG:  Solving for Uz, Initial residual = 1, Final residual = 2.14271e-15, No Iterations 2
DILUPBiCG:  Solving for O2, Initial residual = 0.0165783, Final residual = 2.40935e-13, No Iterations 2
max of O2 = 0.23301
min of O2 = 0.23301
DILUPBiCG:  Solving for H2O, Initial residual = 0, Final residual = 0, No Iterations 0
max of H2O = 0
min of H2O = 0
DILUPBiCG:  Solving for C3H8, Initial residual = 0.999999, Final residual = 2.8685e-10, No Iterations 1
max of C3H8 = 1.01501e-10
min of C3H8 = 0
DILUPBiCG:  Solving for CO2, Initial residual = 0, Final residual = 0, No Iterations 0
max of CO2 = 0
min of CO2 = 0
max of N2 = 0.76699
min of N2 = 0
DILUPBiCG:  Solving for hs, Initial residual = 1, Final residual = 2.77384e-10, No Iterations 1
GAMG:  Solving for p_rgh, Initial residual = 0.975511, Final residual = 0.00791044, No Iterations 5
diagonal:  Solving for rho, Initial residual = 0, Final residual = 0, No Iterations 0
time step continuity errors : sum local = 3.01209e-08, global = -1.48051e-09, cumulative = -1.48051e-09
GAMG:  Solving for p_rgh, Initial residual = 0.0305728, Final residual = 3.6543e-07, No Iterations 11
diagonal:  Solving for rho, Initial residual = 0, Final residual = 0, No Iterations 0
time step continuity errors : sum local = 1.67281e-11, global = -4.22916e-13, cumulative = -1.48094e-09
DILUPBiCG:  Solving for k, Initial residual = 1, Final residual = 8.43673e-11, No Iterations 2

Evolving reactingOneDim for region panelRegion
diagonal:  Solving for rho, Initial residual = 0, Final residual = 0, No Iterations 0
diagonal:  Solving for Yv, Initial residual = 0, Final residual = 0, No Iterations 0
DICPCG:  Solving for T, Initial residual = 1, Final residual = 7.88851e-17, No Iterations 1
pyrolysis min/max(T) = 292.87, 293

Pyrolysis: reactingOneDim
    Total gas mass produced  [kg] = 0
    Total solid mass lost    [kg] = 0
    Total pyrolysis gases  [kg/s] = 0
    Total heat release rate [J/s] = 0

ExecutionTime = 0.06 s  ClockTime = 0 s

Courant Number mean: 2.93673e-05 max: 0.00179966
deltaT = 0.00143023
Time = 0.00262784

diagonal:  Solving for rho, Initial residual = 0, Final residual = 0, No Iterations 0
DILUPBiCG:  Solving for Ux, Initial residual = 0.350472, Final residual = 1.66016e-10, No Iterations 2
DILUPBiCG:  Solving for Uz, Initial residual = 0.340567, Final residual = 3.09671e-11, No Iterations 2
DILUPBiCG:  Solving for O2, Initial residual = 1, Final residual = 2.97889e-16, No Iterations 2
max of O2 = 0.23301
min of O2 = 0.00791415
DILUPBiCG:  Solving for H2O, Initial residual = 0.999995, Final residual = 5.2406e-09, No Iterations 1
max of H2O = 3.26205e-16
min of H2O = 0
DILUPBiCG:  Solving for C3H8, Initial residual = 1, Final residual = 2.25322e-16, No Iterations 2
max of C3H8 = 0.966035
min of C3H8 = 0
DILUPBiCG:  Solving for CO2, Initial residual = 0.999997, Final residual = 5.24061e-09, No Iterations 1
max of CO2 = 5.9767e-16
min of CO2 = 0
max of N2 = 0.76699
min of N2 = 0
DILUPBiCG:  Solving for hs, Initial residual = 0.999072, Final residual = 4.79344e-10, No Iterations 2
GAMG:  Solving for p_rgh, Initial residual = 0.199643, Final residual = 0.00144188, No Iterations 4
diagonal:  Solving for rho, Initial residual = 0, Final residual = 0, No Iterations 0
time step continuity errors : sum local = 1.22046e-07, global = 1.76469e-09, cumulative = 2.83754e-10
GAMG:  Solving for p_rgh, Initial residual = 0.0166838, Final residual = 8.42996e-07, No Iterations 10
diagonal:  Solving for rho, Initial residual = 0, Final residual = 0, No Iterations 0
time step continuity errors : sum local = 1.33556e-10, global = 4.68666e-11, cumulative = 3.30621e-10
DILUPBiCG:  Solving for k, Initial residual = 0.758367, Final residual = 3.17317e-10, No Iterations 2

Evolving reactingOneDim for region panelRegion
diagonal:  Solving for rho, Initial residual = 0, Final residual = 0, No Iterations 0
diagonal:  Solving for Yv, Initial residual = 0, Final residual = 0, No Iterations 0
DICPCG:  Solving for T, Initial residual = 0.25479, Final residual = 1.64e-17, No Iterations 1
pyrolysis min/max(T) = 292.867, 293

Pyrolysis: reactingOneDim
    Total gas mass produced  [kg] = 0
    Total solid mass lost    [kg] = 2.1107e-18
    Total pyrolysis gases  [kg/s] = 0
    Total heat release rate [J/s] = 0

ExecutionTime = 0.08 s  ClockTime = 0 s

Courant Number mean: 6.76791e-05 max: 0.00156436
deltaT = 0.00170148
Time = 0.00432932

diagonal:  Solving for rho, Initial residual = 0, Final residual = 0, No Iterations 0
DILUPBiCG:  Solving for Ux, Initial residual = 0.279276, Final residual = 9.62323e-10, No Iterations 2
DILUPBiCG:  Solving for Uz, Initial residual = 0.245835, Final residual = 2.62615e-10, No Iterations 2
DILUPBiCG:  Solving for O2, Initial residual = 0.408698, Final residual = 6.98052e-16, No Iterations 2
max of O2 = 0.23301
min of O2 = 0.0076249
DILUPBiCG:  Solving for H2O, Initial residual = 1, Final residual = 1.32771e-15, No Iterations 2
max of H2O = 0.000194337
min of H2O = 0
DILUPBiCG:  Solving for C3H8, Initial residual = 0.214912, Final residual = 9.23322e-09, No Iterations 1
max of C3H8 = 0.967212
min of C3H8 = 0
DILUPBiCG:  Solving for CO2, Initial residual = 1, Final residual = 1.32771e-15, No Iterations 2
max of CO2 = 0.000356062
min of CO2 = 0
max of N2 = 0.76699
min of N2 = 0
DILUPBiCG:  Solving for hs, Initial residual = 0.938365, Final residual = 6.12896e-11, No Iterations 2
GAMG:  Solving for p_rgh, Initial residual = 0.256027, Final residual = 0.00179727, No Iterations 5
diagonal:  Solving for rho, Initial residual = 0, Final residual = 0, No Iterations 0
time step continuity errors : sum local = 3.36138e-07, global = -1.92838e-08, cumulative = -1.89531e-08
GAMG:  Solving for p_rgh, Initial residual = 0.000441438, Final residual = 8.99327e-07, No Iterations 6
diagonal:  Solving for rho, Initial residual = 0, Final residual = 0, No Iterations 0
time step continuity errors : sum local = 6.93622e-10, global = -9.51704e-11, cumulative = -1.90483e-08
DILUPBiCG:  Solving for k, Initial residual = 0.889889, Final residual = 8.94379e-09, No Iterations 2

Evolving reactingOneDim for region panelRegion
diagonal:  Solving for rho, Initial residual = 0, Final residual = 0, No Iterations 0
diagonal:  Solving for Yv, Initial residual = 0, Final residual = 0, No Iterations 0
DICPCG:  Solving for T, Initial residual = 0.157183, Final residual = 1.82414e-17, No Iterations 1
pyrolysis min/max(T) = 292.864, 293

Pyrolysis: reactingOneDim
    Total gas mass produced  [kg] = 0
    Total solid mass lost    [kg] = 5.21468e-18
    Total pyrolysis gases  [kg/s] = 0
    Total heat release rate [J/s] = 0

ExecutionTime = 0.09 s  ClockTime = 0 s

Courant Number mean: 0.000406625 max: 0.00734149
deltaT = 0.00203824
Time = 0.00636756

diagonal:  Solving for rho, Initial residual = 0, Final residual = 0, No Iterations 0
DILUPBiCG:  Solving for Ux, Initial residual = 0.362401, Final residual = 3.26857e-08, No Iterations 2
DILUPBiCG:  Solving for Uz, Initial residual = 0.340388, Final residual = 6.76353e-09, No Iterations 2
DILUPBiCG:  Solving for O2, Initial residual = 0.239074, Final residual = 3.07849e-13, No Iterations 2
max of O2 = 0.23301
min of O2 = 0.0075737
DILUPBiCG:  Solving for H2O, Initial residual = 0.343161, Final residual = 2.71243e-13, No Iterations 2
max of H2O = 0.000596158
min of H2O = 0
DILUPBiCG:  Solving for C3H8, Initial residual = 0.129922, Final residual = 1.33753e-13, No Iterations 2
max of C3H8 = 0.967298
min of C3H8 = 0
DILUPBiCG:  Solving for CO2, Initial residual = 0.343161, Final residual = 2.71243e-13, No Iterations 2
max of CO2 = 0.00109228
min of CO2 = 0
max of N2 = 0.76699
min of N2 = 0
DILUPBiCG:  Solving for hs, Initial residual = 0.391809, Final residual = 1.07678e-09, No Iterations 2
GAMG:  Solving for p_rgh, Initial residual = 0.0727043, Final residual = 0.000239184, No Iterations 4
diagonal:  Solving for rho, Initial residual = 0, Final residual = 0, No Iterations 0
time step continuity errors : sum local = 2.59719e-07, global = -1.53317e-08, cumulative = -3.438e-08
GAMG:  Solving for p_rgh, Initial residual = 0.000178199, Final residual = 7.11544e-07, No Iterations 4
diagonal:  Solving for rho, Initial residual = 0, Final residual = 0, No Iterations 0
time step continuity errors : sum local = 1.34615e-09, global = -5.9975e-11, cumulative = -3.444e-08
DILUPBiCG:  Solving for k, Initial residual = 0.557609, Final residual = 3.41535e-11, No Iterations 3

Evolving reactingOneDim for region panelRegion
diagonal:  Solving for rho, Initial residual = 0, Final residual = 0, No Iterations 0
diagonal:  Solving for Yv, Initial residual = 0, Final residual = 0, No Iterations 0
DICPCG:  Solving for T, Initial residual = 0.120054, Final residual = 8.06402e-18, No Iterations 1
pyrolysis min/max(T) = 292.861, 293

Pyrolysis: reactingOneDim
    Total gas mass produced  [kg] = 0
    Total solid mass lost    [kg] = 8.56697e-18
    Total pyrolysis gases  [kg/s] = 0
    Total heat release rate [J/s] = 0

ExecutionTime = 0.11 s  ClockTime = 0 s

Courant Number mean: 0.00116093 max: 0.0154823
deltaT = 0.00242041
Time = 0.00878796

diagonal:  Solving for rho, Initial residual = 0, Final residual = 0, No Iterations 0
DILUPBiCG:  Solving for Ux, Initial residual = 0.331877, Final residual = 1.4467e-10, No Iterations 3
DILUPBiCG:  Solving for Uz, Initial residual = 0.279355, Final residual = 5.78997e-08, No Iterations 2
DILUPBiCG:  Solving for O2, Initial residual = 0.171311, Final residual = 9.97924e-12, No Iterations 2
max of O2 = 0.23301
min of O2 = 0.0075446
DILUPBiCG:  Solving for H2O, Initial residual = 0.212735, Final residual = 9.38801e-12, No Iterations 2
max of H2O = 0.00122631
min of H2O = 0
DILUPBiCG:  Solving for C3H8, Initial residual = 0.0985334, Final residual = 3.45949e-12, No Iterations 2
max of C3H8 = 0.967211
min of C3H8 = 0
DILUPBiCG:  Solving for CO2, Initial residual = 0.212735, Final residual = 9.38801e-12, No Iterations 2
max of CO2 = 0.00224684
min of CO2 = 0
max of N2 = 0.76699
min of N2 = 0
DILUPBiCG:  Solving for hs, Initial residual = 0.231731, Final residual = 3.83768e-09, No Iterations 2
GAMG:  Solving for p_rgh, Initial residual = 0.022841, Final residual = 0.000138243, No Iterations 5
diagonal:  Solving for rho, Initial residual = 0, Final residual = 0, No Iterations 0
time step continuity errors : sum local = 3.57935e-07, global = 2.2189e-08, cumulative = -1.2251e-08
GAMG:  Solving for p_rgh, Initial residual = 0.000373741, Final residual = 8.11282e-07, No Iterations 6
diagonal:  Solving for rho, Initial residual = 0, Final residual = 0, No Iterations 0
time step continuity errors : sum local = 1.98213e-09, global = -5.9304e-11, cumulative = -1.23103e-08
DILUPBiCG:  Solving for k, Initial residual = 0.341959, Final residual = 1.45007e-10, No Iterations 3

Evolving reactingOneDim for region panelRegion
diagonal:  Solving for rho, Initial residual = 0, Final residual = 0, No Iterations 0
diagonal:  Solving for Yv, Initial residual = 0, Final residual = 0, No Iterations 0
DICPCG:  Solving for T, Initial residual = 0.0998714, Final residual = 8.47835e-18, No Iterations 1
pyrolysis min/max(T) = 292.857, 293

Pyrolysis: reactingOneDim
    Total gas mass produced  [kg] = 0
    Total solid mass lost    [kg] = 1.22917e-17
    Total pyrolysis gases  [kg/s] = 0
    Total heat release rate [J/s] = 0

ExecutionTime = 0.12 s  ClockTime = 0 s

Courant Number mean: 0.00212029 max: 0.0236916
deltaT = 0.00289715
Time = 0.0116851

diagonal:  Solving for rho, Initial residual = 0, Final residual = 0, No Iterations 0
DILUPBiCG:  Solving for Ux, Initial residual = 0.265804, Final residual = 5.8702e-10, No Iterations 3
DILUPBiCG:  Solving for Uz, Initial residual = 0.180423, Final residual = 2.29342e-10, No Iterations 3
DILUPBiCG:  Solving for O2, Initial residual = 0.136439, Final residual = 9.97716e-11, No Iterations 2
max of O2 = 0.23301
min of O2 = 0.00755083
DILUPBiCG:  Solving for H2O, Initial residual = 0.158053, Final residual = 8.22882e-11, No Iterations 2
max of H2O = 0.0021111
min of H2O = 0
DILUPBiCG:  Solving for C3H8, Initial residual = 0.0841481, Final residual = 2.32947e-11, No Iterations 2
max of C3H8 = 0.96688
min of C3H8 = 0
DILUPBiCG:  Solving for CO2, Initial residual = 0.158053, Final residual = 8.22882e-11, No Iterations 2
max of CO2 = 0.00386795
min of CO2 = 0
max of N2 = 0.76699
min of N2 = 0
DILUPBiCG:  Solving for hs, Initial residual = 0.160453, Final residual = 5.59391e-09, No Iterations 2
GAMG:  Solving for p_rgh, Initial residual = 0.0255532, Final residual = 0.000248007, No Iterations 4
diagonal:  Solving for rho, Initial residual = 0, Final residual = 0, No Iterations 0
time step continuity errors : sum local = 8.39636e-07, global = 6.61898e-08, cumulative = 5.38795e-08
GAMG:  Solving for p_rgh, Initial residual = 0.000896696, Final residual = 3.27053e-07, No Iterations 6
diagonal:  Solving for rho, Initial residual = 0, Final residual = 0, No Iterations 0
time step continuity errors : sum local = 4.72597e-10, global = 8.26223e-12, cumulative = 5.38877e-08
DILUPBiCG:  Solving for k, Initial residual = 0.235938, Final residual = 3.36828e-10, No Iterations 3

Evolving reactingOneDim for region panelRegion
diagonal:  Solving for rho, Initial residual = 0, Final residual = 0, No Iterations 0
diagonal:  Solving for Yv, Initial residual = 0, Final residual = 0, No Iterations 0
DICPCG:  Solving for T, Initial residual = 0.0884584, Final residual = 7.7339e-18, No Iterations 1
pyrolysis min/max(T) = 292.852, 293

Pyrolysis: reactingOneDim
    Total gas mass produced  [kg] = 0
    Total solid mass lost    [kg] = 1.5644e-17
    Total pyrolysis gases  [kg/s] = 0
    Total heat release rate [J/s] = 0

ExecutionTime = 0.14 s  ClockTime = 0 s

Courant Number mean: 0.00297008 max: 0.0319232
deltaT = 0.00342391
Time = 0.015109

diagonal:  Solving for rho, Initial residual = 0, Final residual = 0, No Iterations 0
DILUPBiCG:  Solving for Ux, Initial residual = 0.133604, Final residual = 7.95295e-10, No Iterations 3
DILUPBiCG:  Solving for Uz, Initial residual = 0.0710204, Final residual = 7.65958e-08, No Iterations 2
DILUPBiCG:  Solving for O2, Initial residual = 0.115196, Final residual = 2.17557e-10, No Iterations 2
max of O2 = 0.23301
min of O2 = 0.00758809
DILUPBiCG:  Solving for H2O, Initial residual = 0.128416, Final residual = 1.05203e-09, No Iterations 2
max of H2O = 0.00329022
min of H2O = 0
DILUPBiCG:  Solving for C3H8, Initial residual = 0.0750292, Final residual = 7.83596e-11, No Iterations 2
max of C3H8 = 0.966299
min of C3H8 = 0
DILUPBiCG:  Solving for CO2, Initial residual = 0.128416, Final residual = 1.05203e-09, No Iterations 2
max of CO2 = 0.00602832
min of CO2 = 0
max of N2 = 0.76699
min of N2 = 0
DILUPBiCG:  Solving for hs, Initial residual = 0.132545, Final residual = 4.92088e-09, No Iterations 2
GAMG:  Solving for p_rgh, Initial residual = 0.0412061, Final residual = 0.000127848, No Iterations 4
diagonal:  Solving for rho, Initial residual = 0, Final residual = 0, No Iterations 0
time step continuity errors : sum local = 2.66448e-07, global = 2.11507e-08, cumulative = 7.50384e-08
GAMG:  Solving for p_rgh, Initial residual = 0.00406507, Final residual = 3.21131e-07, No Iterations 7
diagonal:  Solving for rho, Initial residual = 0, Final residual = 0, No Iterations 0
time step continuity errors : sum local = 7.96744e-11, global = 1.77316e-11, cumulative = 7.50561e-08
DILUPBiCG:  Solving for k, Initial residual = 0.182772, Final residual = 6.53813e-10, No Iterations 3

Evolving reactingOneDim for region panelRegion
diagonal:  Solving for rho, Initial residual = 0, Final residual = 0, No Iterations 0
diagonal:  Solving for Yv, Initial residual = 0, Final residual = 0, No Iterations 0
DICPCG:  Solving for T, Initial residual = 0.0801384, Final residual = 6.8147e-18, No Iterations 1
pyrolysis min/max(T) = 292.846, 293

Pyrolysis: reactingOneDim
    Total gas mass produced  [kg] = 0
    Total solid mass lost    [kg] = 1.97413e-17
    Total pyrolysis gases  [kg/s] = 0
    Total heat release rate [J/s] = 0

ExecutionTime = 0.15 s  ClockTime = 0 s

Courant Number mean: 0.00364997 max: 0.0402436
deltaT = 0.00401937
Time = 0.0191284

diagonal:  Solving for rho, Initial residual = 0, Final residual = 0, No Iterations 0
DILUPBiCG:  Solving for Ux, Initial residual = 0.027639, Final residual = 4.35248e-10, No Iterations 3
DILUPBiCG:  Solving for Uz, Initial residual = 0.0380122, Final residual = 7.21953e-08, No Iterations 2
DILUPBiCG:  Solving for O2, Initial residual = 0.100729, Final residual = 2.70565e-10, No Iterations 2
max of O2 = 0.23301
min of O2 = 0.00764241
DILUPBiCG:  Solving for H2O, Initial residual = 0.109568, Final residual = 3.01051e-10, No Iterations 2
max of H2O = 0.00480919
min of H2O = 0
DILUPBiCG:  Solving for C3H8, Initial residual = 0.0688356, Final residual = 1.788e-10, No Iterations 2
max of C3H8 = 0.965497
min of C3H8 = 0
DILUPBiCG:  Solving for CO2, Initial residual = 0.109568, Final residual = 3.01051e-10, No Iterations 2
max of CO2 = 0.00881135
min of CO2 = 0
max of N2 = 0.76699
min of N2 = 0
DILUPBiCG:  Solving for hs, Initial residual = 0.111728, Final residual = 2.5319e-09, No Iterations 2
GAMG:  Solving for p_rgh, Initial residual = 0.173296, Final residual = 0.000590584, No Iterations 5
diagonal:  Solving for rho, Initial residual = 0, Final residual = 0, No Iterations 0
time step continuity errors : sum local = 1.45393e-07, global = -6.02373e-09, cumulative = 6.90324e-08
GAMG:  Solving for p_rgh, Initial residual = 0.00287954, Final residual = 3.00052e-07, No Iterations 7
diagonal:  Solving for rho, Initial residual = 0, Final residual = 0, No Iterations 0
time step continuity errors : sum local = 5.67346e-11, global = 3.08007e-13, cumulative = 6.90327e-08
DILUPBiCG:  Solving for k, Initial residual = 0.153783, Final residual = 1.25615e-09, No Iterations 3

Evolving reactingOneDim for region panelRegion
diagonal:  Solving for rho, Initial residual = 0, Final residual = 0, No Iterations 0
diagonal:  Solving for Yv, Initial residual = 0, Final residual = 0, No Iterations 0
DICPCG:  Solving for T, Initial residual = 0.0740786, Final residual = 2.82041e-18, No Iterations 1
pyrolysis min/max(T) = 292.84, 293

Pyrolysis: reactingOneDim
    Total gas mass produced  [kg] = 0
    Total solid mass lost    [kg] = 2.48318e-17
    Total pyrolysis gases  [kg/s] = 0
    Total heat release rate [J/s] = 0

ExecutionTime = 0.16 s  ClockTime = 0 s

Courant Number mean: 0.00447408 max: 0.0487636
deltaT = 0.00475978
Time = 0.0238882

diagonal:  Solving for rho, Initial residual = 0, Final residual = 0, No Iterations 0
DILUPBiCG:  Solving for Ux, Initial residual = 0.0347353, Final residual = 1.09268e-09, No Iterations 3
DILUPBiCG:  Solving for Uz, Initial residual = 0.0442741, Final residual = 7.81977e-10, No Iterations 3
DILUPBiCG:  Solving for O2, Initial residual = 0.0907079, Final residual = 8.74054e-10, No Iterations 2
max of O2 = 0.23301
min of O2 = 0.00768715
DILUPBiCG:  Solving for H2O, Initial residual = 0.0967717, Final residual = 9.48073e-10, No Iterations 2
max of H2O = 0.00672199
min of H2O = 0
DILUPBiCG:  Solving for C3H8, Initial residual = 0.0656443, Final residual = 5.38092e-10, No Iterations 2
max of C3H8 = 0.964554
min of C3H8 = 0
DILUPBiCG:  Solving for CO2, Initial residual = 0.0967717, Final residual = 9.48073e-10, No Iterations 2
max of CO2 = 0.012316
min of CO2 = 0
max of N2 = 0.76699
min of N2 = 0
DILUPBiCG:  Solving for hs, Initial residual = 0.0968826, Final residual = 1.27442e-09, No Iterations 2
GAMG:  Solving for p_rgh, Initial residual = 0.227374, Final residual = 0.00184917, No Iterations 4
diagonal:  Solving for rho, Initial residual = 0, Final residual = 0, No Iterations 0
time step continuity errors : sum local = 4.83732e-07, global = 4.93332e-08, cumulative = 1.18366e-07
GAMG:  Solving for p_rgh, Initial residual = 0.00145475, Final residual = 6.41716e-07, No Iterations 6
diagonal:  Solving for rho, Initial residual = 0, Final residual = 0, No Iterations 0
time step continuity errors : sum local = 5.46169e-10, global = 3.66229e-11, cumulative = 1.18403e-07
DILUPBiCG:  Solving for k, Initial residual = 0.134081, Final residual = 2.37794e-09, No Iterations 3

Evolving reactingOneDim for region panelRegion
diagonal:  Solving for rho, Initial residual = 0, Final residual = 0, No Iterations 0
diagonal:  Solving for Yv, Initial residual = 0, Final residual = 0, No Iterations 0
DICPCG:  Solving for T, Initial residual = 0.0704488, Final residual = 4.38336e-18, No Iterations 1
pyrolysis min/max(T) = 292.832, 293

Pyrolysis: reactingOneDim
    Total gas mass produced  [kg] = 0
    Total solid mass lost    [kg] = 3.07914e-17
    Total pyrolysis gases  [kg/s] = 0
    Total heat release rate [J/s] = 0

ExecutionTime = 0.18 s  ClockTime = 0 s

Courant Number mean: 0.00559329 max: 0.0574235
deltaT = 0.00568103
Time = 0.0295692

diagonal:  Solving for rho, Initial residual = 0, Final residual = 0, No Iterations 0
DILUPBiCG:  Solving for Ux, Initial residual = 0.0411938, Final residual = 2.3403e-09, No Iterations 3
DILUPBiCG:  Solving for Uz, Initial residual = 0.0332987, Final residual = 1.16256e-09, No Iterations 3
DILUPBiCG:  Solving for O2, Initial residual = 0.0835019, Final residual = 2.55722e-09, No Iterations 2
max of O2 = 0.23301
min of O2 = 0.00768043
DILUPBiCG:  Solving for H2O, Initial residual = 0.0877519, Final residual = 2.72321e-09, No Iterations 2
max of H2O = 0.00910559
min of H2O = 0
DILUPBiCG:  Solving for C3H8, Initial residual = 0.0639012, Final residual = 1.49372e-09, No Iterations 2
max of C3H8 = 0.963608
min of C3H8 = 0
DILUPBiCG:  Solving for CO2, Initial residual = 0.0877519, Final residual = 2.72321e-09, No Iterations 2
max of CO2 = 0.0166832
min of CO2 = 0
max of N2 = 0.76699
min of N2 = 0
GAMG:  Solving for ILambda_0_0, Initial residual = 1, Final residual = 1.05081e-15, No Iterations 1
GAMG:  Solving for ILambda_1_0, Initial residual = 1, Final residual = 8.00263e-16, No Iterations 1
GAMG:  Solving for ILambda_2_0, Initial residual = 1, Final residual = 8.00263e-16, No Iterations 1
GAMG:  Solving for ILambda_3_0, Initial residual = 1, Final residual = 1.02471e-15, No Iterations 1
GAMG:  Solving for ILambda_4_0, Initial residual = 1, Final residual = 1.5824e-16, No Iterations 1
GAMG:  Solving for ILambda_5_0, Initial residual = 1, Final residual = 1.84757e-16, No Iterations 1
GAMG:  Solving for ILambda_6_0, Initial residual = 1, Final residual = 1.21504e-16, No Iterations 1
GAMG:  Solving for ILambda_7_0, Initial residual = 1, Final residual = 2.56406e-16, No Iterations 1
Radiation solver iter: 1
GAMG:  Solving for ILambda_0_0, Initial residual = 0.113854, Final residual = 2.13003e-16, No Iterations 1
GAMG:  Solving for ILambda_1_0, Initial residual = 0.135208, Final residual = 3.49619e-16, No Iterations 1
GAMG:  Solving for ILambda_2_0, Initial residual = 0.135208, Final residual = 3.49619e-16, No Iterations 1
GAMG:  Solving for ILambda_3_0, Initial residual = 0.113854, Final residual = 2.64916e-16, No Iterations 1
GAMG:  Solving for ILambda_4_0, Initial residual = 0.134213, Final residual = 1.02708e-16, No Iterations 1
GAMG:  Solving for ILambda_5_0, Initial residual = 0.174818, Final residual = 5.12092e-17, No Iterations 1
GAMG:  Solving for ILambda_6_0, Initial residual = 0.174818, Final residual = 8.31166e-17, No Iterations 1
GAMG:  Solving for ILambda_7_0, Initial residual = 0.134213, Final residual = 8.84715e-17, No Iterations 1
Radiation solver iter: 2
GAMG:  Solving for ILambda_0_0, Initial residual = 0.063778, Final residual = 3.35969e-16, No Iterations 1
GAMG:  Solving for ILambda_1_0, Initial residual = 0.0718088, Final residual = 3.78573e-16, No Iterations 1
GAMG:  Solving for ILambda_2_0, Initial residual = 0.0718088, Final residual = 3.78573e-16, No Iterations 1
GAMG:  Solving for ILambda_3_0, Initial residual = 0.063778, Final residual = 3.30399e-16, No Iterations 1
GAMG:  Solving for ILambda_4_0, Initial residual = 0.0624491, Final residual = 4.83165e-17, No Iterations 1
GAMG:  Solving for ILambda_5_0, Initial residual = 0.0791662, Final residual = 1.37886e-16, No Iterations 1
GAMG:  Solving for ILambda_6_0, Initial residual = 0.0791662, Final residual = 7.73412e-17, No Iterations 1
GAMG:  Solving for ILambda_7_0, Initial residual = 0.0624491, Final residual = 1.59432e-16, No Iterations 1
Radiation solver iter: 3
GAMG:  Solving for ILambda_0_0, Initial residual = 0.0253131, Final residual = 3.57331e-16, No Iterations 1
GAMG:  Solving for ILambda_1_0, Initial residual = 0.0271051, Final residual = 3.26919e-16, No Iterations 1
GAMG:  Solving for ILambda_2_0, Initial residual = 0.0271051, Final residual = 3.26919e-16, No Iterations 1
GAMG:  Solving for ILambda_3_0, Initial residual = 0.0253131, Final residual = 3.67568e-16, No Iterations 1
GAMG:  Solving for ILambda_4_0, Initial residual = 0.0182007, Final residual = 4.84279e-17, No Iterations 1
GAMG:  Solving for ILambda_5_0, Initial residual = 0.0222992, Final residual = 5.7811e-17, No Iterations 1
GAMG:  Solving for ILambda_6_0, Initial residual = 0.0222992, Final residual = 1.02437e-16, No Iterations 1
GAMG:  Solving for ILambda_7_0, Initial residual = 0.0182007, Final residual = 8.15458e-17, No Iterations 1
Radiation solver iter: 4
GAMG:  Solving for ILambda_0_0, Initial residual = 0.00678692, Final residual = 2.7913e-16, No Iterations 1
GAMG:  Solving for ILambda_1_0, Initial residual = 0.00757797, Final residual = 3.851e-16, No Iterations 1
GAMG:  Solving for ILambda_2_0, Initial residual = 0.00757797, Final residual = 3.851e-16, No Iterations 1
GAMG:  Solving for ILambda_3_0, Initial residual = 0.00678692, Final residual = 3.918e-16, No Iterations 1
GAMG:  Solving for ILambda_4_0, Initial residual = 0.00798341, Final residual = 1.22942e-17, No Iterations 1
GAMG:  Solving for ILambda_5_0, Initial residual = 0.00984598, Final residual = 1.04135e-16, No Iterations 1
GAMG:  Solving for ILambda_6_0, Initial residual = 0.00984598, Final residual = 1.2796e-16, No Iterations 1
GAMG:  Solving for ILambda_7_0, Initial residual = 0.00798341, Final residual = 8.84175e-17, No Iterations 1
Radiation solver iter: 5
DILUPBiCG:  Solving for hs, Initial residual = 0.0879978, Final residual = 3.02713e-09, No Iterations 2
GAMG:  Solving for p_rgh, Initial residual = 0.0213504, Final residual = 0.00015481, No Iterations 5
diagonal:  Solving for rho, Initial residual = 0, Final residual = 0, No Iterations 0
time step continuity errors : sum local = 1.88751e-07, global = 1.48387e-08, cumulative = 1.33241e-07
GAMG:  Solving for p_rgh, Initial residual = 0.0012939, Final residual = 4.68619e-07, No Iterations 6
diagonal:  Solving for rho, Initial residual = 0, Final residual = 0, No Iterations 0
time step continuity errors : sum local = 3.70646e-10, global = 2.79954e-11, cumulative = 1.33269e-07
DILUPBiCG:  Solving for k, Initial residual = 0.119007, Final residual = 4.33155e-09, No Iterations 3

Evolving reactingOneDim for region panelRegion
diagonal:  Solving for rho, Initial residual = 0, Final residual = 0, No Iterations 0
diagonal:  Solving for Yv, Initial residual = 0, Final residual = 0, No Iterations 0
DICPCG:  Solving for T, Initial residual = 0.0767837, Final residual = 2.99318e-18, No Iterations 1
pyrolysis min/max(T) = 292.962, 293.983

Pyrolysis: reactingOneDim
    Total gas mass produced  [kg] = 0
    Total solid mass lost    [kg] = 3.84893e-17
    Total pyrolysis gases  [kg/s] = 0
    Total heat release rate [J/s] = 0

ExecutionTime = 0.21 s  ClockTime = 0 s

Courant Number mean: 0.00688364 max: 0.0661014
deltaT = 0.00655503
Time = 0.0361242

diagonal:  Solving for rho, Initial residual = 0, Final residual = 0, No Iterations 0
DILUPBiCG:  Solving for Ux, Initial residual = 0.0281283, Final residual = 2.33103e-09, No Iterations 3
DILUPBiCG:  Solving for Uz, Initial residual = 0.0157601, Final residual = 9.17544e-10, No Iterations 3
DILUPBiCG:  Solving for O2, Initial residual = 0.0772491, Final residual = 5.73371e-09, No Iterations 2
max of O2 = 0.23301
min of O2 = 0.00757897
DILUPBiCG:  Solving for H2O, Initial residual = 0.0807436, Final residual = 5.99585e-09, No Iterations 2
max of H2O = 0.0120786
min of H2O = 0
DILUPBiCG:  Solving for C3H8, Initial residual = 0.0597188, Final residual = 3.10329e-09, No Iterations 2
max of C3H8 = 0.962797
min of C3H8 = 0
DILUPBiCG:  Solving for CO2, Initial residual = 0.0807436, Final residual = 5.99585e-09, No Iterations 2
max of CO2 = 0.0221304
min of CO2 = 0
max of N2 = 0.76699
min of N2 = 0
DILUPBiCG:  Solving for hs, Initial residual = 0.0807774, Final residual = 6.84664e-09, No Iterations 2
GAMG:  Solving for p_rgh, Initial residual = 0.0275057, Final residual = 0.00021586, No Iterations 4
diagonal:  Solving for rho, Initial residual = 0, Final residual = 0, No Iterations 0
time step continuity errors : sum local = 2.21466e-07, global = -2.15536e-08, cumulative = 1.11716e-07
GAMG:  Solving for p_rgh, Initial residual = 0.000748335, Final residual = 3.5064e-07, No Iterations 6
diagonal:  Solving for rho, Initial residual = 0, Final residual = 0, No Iterations 0
time step continuity errors : sum local = 2.75897e-10, global = -1.91683e-11, cumulative = 1.11696e-07
DILUPBiCG:  Solving for k, Initial residual = 0.109596, Final residual = 7.5555e-09, No Iterations 3

Evolving reactingOneDim for region panelRegion
diagonal:  Solving for rho, Initial residual = 0, Final residual = 0, No Iterations 0
diagonal:  Solving for Yv, Initial residual = 0, Final residual = 0, No Iterations 0
DICPCG:  Solving for T, Initial residual = 0.0894388, Final residual = 2.55129e-18, No Iterations 1
pyrolysis min/max(T) = 292.963, 294.066

Pyrolysis: reactingOneDim
    Total gas mass produced  [kg] = 0
    Total solid mass lost    [kg] = 4.64355e-17
    Total pyrolysis gases  [kg/s] = 0
    Total heat release rate [J/s] = 0

ExecutionTime = 0.22 s  ClockTime = 0 s

Courant Number mean: 0.00822815 max: 0.0748102
deltaT = 0.00780361
Time = 0.0439278

diagonal:  Solving for rho, Initial residual = 0, Final residual = 0, No Iterations 0
DILUPBiCG:  Solving for Ux, Initial residual = 0.0263896, Final residual = 5.9719e-09, No Iterations 3
DILUPBiCG:  Solving for Uz, Initial residual = 0.024261, Final residual = 3.42146e-09, No Iterations 3
DILUPBiCG:  Solving for O2, Initial residual = 0.0730055, Final residual = 5.56035e-12, No Iterations 3
max of O2 = 0.23301
min of O2 = 0.00735877
DILUPBiCG:  Solving for H2O, Initial residual = 0.0754703, Final residual = 6.99027e-12, No Iterations 3
max of H2O = 0.0157184
min of H2O = 0
DILUPBiCG:  Solving for C3H8, Initial residual = 0.0596536, Final residual = 8.46452e-09, No Iterations 2
max of C3H8 = 0.962191
min of C3H8 = 0
DILUPBiCG:  Solving for CO2, Initial residual = 0.0754703, Final residual = 6.99027e-12, No Iterations 3
max of CO2 = 0.0287991
min of CO2 = 0
max of N2 = 0.76699
min of N2 = 0
DILUPBiCG:  Solving for hs, Initial residual = 0.0754718, Final residual = 7.31186e-12, No Iterations 3
GAMG:  Solving for p_rgh, Initial residual = 0.0387173, Final residual = 0.000321381, No Iterations 5
diagonal:  Solving for rho, Initial residual = 0, Final residual = 0, No Iterations 0
time step continuity errors : sum local = 3.63855e-07, global = 2.9583e-08, cumulative = 1.41279e-07
GAMG:  Solving for p_rgh, Initial residual = 0.00678694, Final residual = 9.20968e-07, No Iterations 7
diagonal:  Solving for rho, Initial residual = 0, Final residual = 0, No Iterations 0
time step continuity errors : sum local = 3.66546e-10, global = 2.47077e-11, cumulative = 1.41304e-07
DILUPBiCG:  Solving for k, Initial residual = 0.0999217, Final residual = 1.78454e-11, No Iterations 4

Evolving reactingOneDim for region panelRegion
diagonal:  Solving for rho, Initial residual = 0, Final residual = 0, No Iterations 0
diagonal:  Solving for Yv, Initial residual = 0, Final residual = 0, No Iterations 0
DICPCG:  Solving for T, Initial residual = 0.100023, Final residual = 2.52944e-18, No Iterations 1
pyrolysis min/max(T) = 292.965, 294.164

Pyrolysis: reactingOneDim
    Total gas mass produced  [kg] = 0
    Total solid mass lost    [kg] = 5.50024e-17
    Total pyrolysis gases  [kg/s] = 0
    Total heat release rate [J/s] = 0

ExecutionTime = 0.24 s  ClockTime = 0 s

Courant Number mean: 0.0098779 max: 0.0849069
deltaT = 0.00918072
Time = 0.0531086

diagonal:  Solving for rho, Initial residual = 0, Final residual = 0, No Iterations 0
DILUPBiCG:  Solving for Ux, Initial residual = 0.00904661, Final residual = 6.65833e-09, No Iterations 3
DILUPBiCG:  Solving for Uz, Initial residual = 0.00966891, Final residual = 1.64565e-09, No Iterations 3
DILUPBiCG:  Solving for O2, Initial residual = 0.0690114, Final residual = 1.82546e-11, No Iterations 3
max of O2 = 0.23301
min of O2 = 0.00697033
DILUPBiCG:  Solving for H2O, Initial residual = 0.0710258, Final residual = 2.40537e-11, No Iterations 3
max of H2O = 0.0202155
min of H2O = 0
DILUPBiCG:  Solving for C3H8, Initial residual = 0.0575043, Final residual = 9.72625e-12, No Iterations 3
max of C3H8 = 0.961955
min of C3H8 = 0
DILUPBiCG:  Solving for CO2, Initial residual = 0.0710258, Final residual = 2.40537e-11, No Iterations 3
max of CO2 = 0.0370388
min of CO2 = 0
max of N2 = 0.76699
min of N2 = 0
DILUPBiCG:  Solving for hs, Initial residual = 0.0710142, Final residual = 3.71939e-11, No Iterations 3
GAMG:  Solving for p_rgh, Initial residual = 0.0876008, Final residual = 0.00046975, No Iterations 4
diagonal:  Solving for rho, Initial residual = 0, Final residual = 0, No Iterations 0
time step continuity errors : sum local = 2.51581e-07, global = 1.70738e-08, cumulative = 1.58378e-07
GAMG:  Solving for p_rgh, Initial residual = 0.00682697, Final residual = 6.83131e-07, No Iterations 7
diagonal:  Solving for rho, Initial residual = 0, Final residual = 0, No Iterations 0
time step continuity errors : sum local = 1.8512e-10, global = 1.5272e-11, cumulative = 1.58393e-07
DILUPBiCG:  Solving for k, Initial residual = 0.0921627, Final residual = 2.96538e-11, No Iterations 4

Evolving reactingOneDim for region panelRegion
diagonal:  Solving for rho, Initial residual = 0, Final residual = 0, No Iterations 0
diagonal:  Solving for Yv, Initial residual = 0, Final residual = 0, No Iterations 0
DICPCG:  Solving for T, Initial residual = 0.108394, Final residual = 4.11751e-18, No Iterations 1
pyrolysis min/max(T) = 292.966, 294.277

Pyrolysis: reactingOneDim
    Total gas mass produced  [kg] = 0
    Total solid mass lost    [kg] = 6.19553e-17
    Total pyrolysis gases  [kg/s] = 0
    Total heat release rate [J/s] = 0

ExecutionTime = 0.25 s  ClockTime = 0 s

Courant Number mean: 0.0116531 max: 0.0976205
deltaT = 0.00979276
Time = 0.0629013

diagonal:  Solving for rho, Initial residual = 0, Final residual = 0, No Iterations 0
DILUPBiCG:  Solving for Ux, Initial residual = 0.00447067, Final residual = 8.16793e-09, No Iterations 3
DILUPBiCG:  Solving for Uz, Initial residual = 0.00540591, Final residual = 5.0757e-08, No Iterations 2
DILUPBiCG:  Solving for O2, Initial residual = 0.0636575, Final residual = 2.93352e-11, No Iterations 3
max of O2 = 0.23301
min of O2 = 0.00639596
DILUPBiCG:  Solving for H2O, Initial residual = 0.0661026, Final residual = 3.74661e-11, No Iterations 3
max of H2O = 0.0258537
min of H2O = 0
DILUPBiCG:  Solving for C3H8, Initial residual = 0.0489958, Final residual = 1.35093e-11, No Iterations 3
max of C3H8 = 0.962084
min of C3H8 = 0
DILUPBiCG:  Solving for CO2, Initial residual = 0.0661026, Final residual = 3.74661e-11, No Iterations 3
max of CO2 = 0.0473689
min of CO2 = 0
max of N2 = 0.76699
min of N2 = 0
DILUPBiCG:  Solving for hs, Initial residual = 0.06608, Final residual = 4.04505e-11, No Iterations 3
GAMG:  Solving for p_rgh, Initial residual = 0.182992, Final residual = 0.000662809, No Iterations 6
diagonal:  Solving for rho, Initial residual = 0, Final residual = 0, No Iterations 0
time step continuity errors : sum local = 1.91901e-07, global = -1.59543e-08, cumulative = 1.42439e-07
GAMG:  Solving for p_rgh, Initial residual = 0.00168306, Final residual = 6.25516e-07, No Iterations 7
diagonal:  Solving for rho, Initial residual = 0, Final residual = 0, No Iterations 0
time step continuity errors : sum local = 1.35689e-09, global = -4.84726e-11, cumulative = 1.4239e-07
DILUPBiCG:  Solving for k, Initial residual = 0.0891506, Final residual = 4.96171e-11, No Iterations 4

Evolving reactingOneDim for region panelRegion
diagonal:  Solving for rho, Initial residual = 0, Final residual = 0, No Iterations 0
diagonal:  Solving for Yv, Initial residual = 0, Final residual = 0, No Iterations 0
DICPCG:  Solving for T, Initial residual = 0.105374, Final residual = 6.92299e-18, No Iterations 1
pyrolysis min/max(T) = 292.968, 294.395

Pyrolysis: reactingOneDim
    Total gas mass produced  [kg] = 0
    Total solid mass lost    [kg] = 6.92807e-17
    Total pyrolysis gases  [kg/s] = 0
    Total heat release rate [J/s] = 0

ExecutionTime = 0.26 s  ClockTime = 0 s

Courant Number mean: 0.0132327 max: 0.109322
deltaT = 0.00979276
Time = 0.0726941

diagonal:  Solving for rho, Initial residual = 0, Final residual = 0, No Iterations 0
DILUPBiCG:  Solving for Ux, Initial residual = 0.0390877, Final residual = 2.43015e-08, No Iterations 3
DILUPBiCG:  Solving for Uz, Initial residual = 0.0337957, Final residual = 1.44615e-08, No Iterations 3
DILUPBiCG:  Solving for O2, Initial residual = 0.055304, Final residual = 4.48184e-11, No Iterations 3
max of O2 = 0.23301
min of O2 = 0.00574365
DILUPBiCG:  Solving for H2O, Initial residual = 0.0573333, Final residual = 5.74889e-11, No Iterations 3
max of H2O = 0.0318394
min of H2O = 0
DILUPBiCG:  Solving for C3H8, Initial residual = 0.0423598, Final residual = 1.91848e-11, No Iterations 3
max of C3H8 = 0.96244
min of C3H8 = 0
DILUPBiCG:  Solving for CO2, Initial residual = 0.0573333, Final residual = 5.74889e-11, No Iterations 3
max of CO2 = 0.0583359
min of CO2 = 0
max of N2 = 0.76699
min of N2 = 0
DILUPBiCG:  Solving for hs, Initial residual = 0.0573425, Final residual = 7.50172e-11, No Iterations 3
GAMG:  Solving for p_rgh, Initial residual = 0.0268322, Final residual = 9.49685e-05, No Iterations 4
diagonal:  Solving for rho, Initial residual = 0, Final residual = 0, No Iterations 0
time step continuity errors : sum local = 2.10935e-07, global = 3.27395e-08, cumulative = 1.7513e-07
GAMG:  Solving for p_rgh, Initial residual = 0.00170338, Final residual = 3.75025e-07, No Iterations 7
diagonal:  Solving for rho, Initial residual = 0, Final residual = 0, No Iterations 0
time step continuity errors : sum local = 9.35364e-10, global = -7.77379e-11, cumulative = 1.75052e-07
DILUPBiCG:  Solving for k, Initial residual = 0.0791168, Final residual = 5.05376e-11, No Iterations 4

Evolving reactingOneDim for region panelRegion
diagonal:  Solving for rho, Initial residual = 0, Final residual = 0, No Iterations 0
diagonal:  Solving for Yv, Initial residual = 0, Final residual = 0, No Iterations 0
DICPCG:  Solving for T, Initial residual = 0.0815573, Final residual = 1.72349e-18, No Iterations 1
pyrolysis min/max(T) = 292.969, 294.515

Pyrolysis: reactingOneDim
    Total gas mass produced  [kg] = 0
    Total solid mass lost    [kg] = 7.67303e-17
    Total pyrolysis gases  [kg/s] = 0
    Total heat release rate [J/s] = 0

ExecutionTime = 0.28 s  ClockTime = 0 s

Courant Number mean: 0.0140587 max: 0.111397
deltaT = 0.00979276
Time = 0.0824868

diagonal:  Solving for rho, Initial residual = 0, Final residual = 0, No Iterations 0
DILUPBiCG:  Solving for Ux, Initial residual = 0.0403073, Final residual = 2.70225e-08, No Iterations 3
DILUPBiCG:  Solving for Uz, Initial residual = 0.0339271, Final residual = 1.56309e-08, No Iterations 3
DILUPBiCG:  Solving for O2, Initial residual = 0.0456422, Final residual = 6.05404e-11, No Iterations 3
max of O2 = 0.23301
min of O2 = 0.00511882
DILUPBiCG:  Solving for H2O, Initial residual = 0.0468978, Final residual = 7.93103e-11, No Iterations 3
max of H2O = 0.037086
min of H2O = 0
DILUPBiCG:  Solving for C3H8, Initial residual = 0.037203, Final residual = 2.39117e-11, No Iterations 3
max of C3H8 = 0.963048
min of C3H8 = 0
DILUPBiCG:  Solving for CO2, Initial residual = 0.0468978, Final residual = 7.93103e-11, No Iterations 3
max of CO2 = 0.0679487
min of CO2 = 0
max of N2 = 0.76699
min of N2 = 0
DILUPBiCG:  Solving for hs, Initial residual = 0.0468703, Final residual = 8.31794e-11, No Iterations 3
GAMG:  Solving for p_rgh, Initial residual = 0.0333446, Final residual = 0.000313229, No Iterations 5
diagonal:  Solving for rho, Initial residual = 0, Final residual = 0, No Iterations 0
time step continuity errors : sum local = 8.03346e-07, global = 6.77506e-08, cumulative = 2.42803e-07
GAMG:  Solving for p_rgh, Initial residual = 0.0185115, Final residual = 3.75329e-07, No Iterations 9
diagonal:  Solving for rho, Initial residual = 0, Final residual = 0, No Iterations 0
time step continuity errors : sum local = 1.58978e-10, global = 1.11308e-11, cumulative = 2.42814e-07
DILUPBiCG:  Solving for k, Initial residual = 0.0623619, Final residual = 5.43006e-11, No Iterations 4

Evolving reactingOneDim for region panelRegion
diagonal:  Solving for rho, Initial residual = 0, Final residual = 0, No Iterations 0
diagonal:  Solving for Yv, Initial residual = 0, Final residual = 0, No Iterations 0
DICPCG:  Solving for T, Initial residual = 0.0650072, Final residual = 5.677e-18, No Iterations 1
pyrolysis min/max(T) = 292.971, 294.639

Pyrolysis: reactingOneDim
    Total gas mass produced  [kg] = 0
    Total solid mass lost    [kg] = 8.4304e-17
    Total pyrolysis gases  [kg/s] = 0
    Total heat release rate [J/s] = 0

ExecutionTime = 0.29 s  ClockTime = 0 s

Courant Number mean: 0.013982 max: 0.102647
deltaT = 0.00979276
Time = 0.0922796

diagonal:  Solving for rho, Initial residual = 0, Final residual = 0, No Iterations 0
DILUPBiCG:  Solving for Ux, Initial residual = 0.0051451, Final residual = 7.61133e-08, No Iterations 2
DILUPBiCG:  Solving for Uz, Initial residual = 0.00559636, Final residual = 3.99151e-08, No Iterations 2
DILUPBiCG:  Solving for O2, Initial residual = 0.0378168, Final residual = 5.18018e-11, No Iterations 3
max of O2 = 0.23301
min of O2 = 0.00452399
DILUPBiCG:  Solving for H2O, Initial residual = 0.0388769, Final residual = 6.14915e-11, No Iterations 3
max of H2O = 0.0417353
min of H2O = 0
DILUPBiCG:  Solving for C3H8, Initial residual = 0.0304928, Final residual = 1.56823e-11, No Iterations 3
max of C3H8 = 0.963859
min of C3H8 = 0
DILUPBiCG:  Solving for CO2, Initial residual = 0.0388769, Final residual = 6.14915e-11, No Iterations 3
max of CO2 = 0.0764671
min of CO2 = 0
max of N2 = 0.76699
min of N2 = 0
DILUPBiCG:  Solving for hs, Initial residual = 0.0388626, Final residual = 7.26111e-11, No Iterations 3
GAMG:  Solving for p_rgh, Initial residual = 0.2237, Final residual = 0.00207109, No Iterations 4
diagonal:  Solving for rho, Initial residual = 0, Final residual = 0, No Iterations 0
time step continuity errors : sum local = 8.86535e-07, global = 5.64491e-08, cumulative = 2.99263e-07
GAMG:  Solving for p_rgh, Initial residual = 0.00370353, Final residual = 5.18108e-07, No Iterations 7
diagonal:  Solving for rho, Initial residual = 0, Final residual = 0, No Iterations 0
time step continuity errors : sum local = 7.96395e-10, global = 6.29431e-11, cumulative = 2.99326e-07
DILUPBiCG:  Solving for k, Initial residual = 0.0493382, Final residual = 3.15577e-11, No Iterations 4

Evolving reactingOneDim for region panelRegion
diagonal:  Solving for rho, Initial residual = 0, Final residual = 0, No Iterations 0
diagonal:  Solving for Yv, Initial residual = 0, Final residual = 0, No Iterations 0
DICPCG:  Solving for T, Initial residual = 0.0543797, Final residual = 2.86907e-18, No Iterations 1
pyrolysis min/max(T) = 292.972, 294.765

Pyrolysis: reactingOneDim
    Total gas mass produced  [kg] = 0
    Total solid mass lost    [kg] = 9.18777e-17
    Total pyrolysis gases  [kg/s] = 0
    Total heat release rate [J/s] = 0

ExecutionTime = 0.31 s  ClockTime = 0 s

Courant Number mean: 0.0135193 max: 0.0966345
deltaT = 0.00979276
Time = 0.102072

diagonal:  Solving for rho, Initial residual = 0, Final residual = 0, No Iterations 0
DILUPBiCG:  Solving for Ux, Initial residual = 0.0213876, Final residual = 1.21208e-08, No Iterations 3
DILUPBiCG:  Solving for Uz, Initial residual = 0.0163932, Final residual = 6.78642e-09, No Iterations 3
DILUPBiCG:  Solving for O2, Initial residual = 0.0320448, Final residual = 4.90381e-11, No Iterations 3
max of O2 = 0.23301
min of O2 = 0.00398131
DILUPBiCG:  Solving for H2O, Initial residual = 0.0329659, Final residual = 4.37404e-11, No Iterations 3
max of H2O = 0.0457733
min of H2O = 0
DILUPBiCG:  Solving for C3H8, Initial residual = 0.0255388, Final residual = 9.56132e-09, No Iterations 2
max of C3H8 = 0.964746
min of C3H8 = 0
DILUPBiCG:  Solving for CO2, Initial residual = 0.0329659, Final residual = 4.37404e-11, No Iterations 3
max of CO2 = 0.0838655
min of CO2 = 0
max of N2 = 0.76699
min of N2 = 0
DILUPBiCG:  Solving for hs, Initial residual = 0.0329491, Final residual = 4.61236e-11, No Iterations 3
GAMG:  Solving for p_rgh, Initial residual = 0.029641, Final residual = 0.000176677, No Iterations 4
diagonal:  Solving for rho, Initial residual = 0, Final residual = 0, No Iterations 0
time step continuity errors : sum local = 2.70952e-07, global = 2.50916e-09, cumulative = 3.01835e-07
GAMG:  Solving for p_rgh, Initial residual = 0.00160641, Final residual = 7.72036e-07, No Iterations 6
diagonal:  Solving for rho, Initial residual = 0, Final residual = 0, No Iterations 0
time step continuity errors : sum local = 1.23149e-09, global = 1.00228e-10, cumulative = 3.01935e-07
DILUPBiCG:  Solving for k, Initial residual = 0.0403136, Final residual = 6.51632e-09, No Iterations 3

Evolving reactingOneDim for region panelRegion
diagonal:  Solving for rho, Initial residual = 0, Final residual = 0, No Iterations 0
diagonal:  Solving for Yv, Initial residual = 0, Final residual = 0, No Iterations 0
DICPCG:  Solving for T, Initial residual = 0.047056, Final residual = 8.87717e-19, No Iterations 1
pyrolysis min/max(T) = 292.973, 294.895

Pyrolysis: reactingOneDim
    Total gas mass produced  [kg] = 0
    Total solid mass lost    [kg] = 9.94514e-17
    Total pyrolysis gases  [kg/s] = 0
    Total heat release rate [J/s] = 0

ExecutionTime = 0.32 s  ClockTime = 0 s

Courant Number mean: 0.0130423 max: 0.0927312
deltaT = 0.00979276
Time = 0.111865

diagonal:  Solving for rho, Initial residual = 0, Final residual = 0, No Iterations 0
DILUPBiCG:  Solving for Ux, Initial residual = 0.0228795, Final residual = 1.07012e-08, No Iterations 3
DILUPBiCG:  Solving for Uz, Initial residual = 0.0181477, Final residual = 6.85505e-09, No Iterations 3
DILUPBiCG:  Solving for O2, Initial residual = 0.0276302, Final residual = 3.06066e-11, No Iterations 3
max of O2 = 0.23301
min of O2 = 0.003498
DILUPBiCG:  Solving for H2O, Initial residual = 0.0284666, Final residual = 3.4556e-11, No Iterations 3
max of H2O = 0.049232
min of H2O = 0
DILUPBiCG:  Solving for C3H8, Initial residual = 0.0216614, Final residual = 5.75118e-09, No Iterations 2
max of C3H8 = 0.965627
min of C3H8 = 0
DILUPBiCG:  Solving for CO2, Initial residual = 0.0284666, Final residual = 3.4556e-11, No Iterations 3
max of CO2 = 0.0902024
min of CO2 = 0
max of N2 = 0.76699
min of N2 = 0
DILUPBiCG:  Solving for hs, Initial residual = 0.0284486, Final residual = 3.55652e-11, No Iterations 3
GAMG:  Solving for p_rgh, Initial residual = 0.0255343, Final residual = 0.000145804, No Iterations 3
diagonal:  Solving for rho, Initial residual = 0, Final residual = 0, No Iterations 0
time step continuity errors : sum local = 2.32459e-07, global = 1.05233e-07, cumulative = 4.07168e-07
GAMG:  Solving for p_rgh, Initial residual = 0.00136271, Final residual = 4.68024e-07, No Iterations 6
diagonal:  Solving for rho, Initial residual = 0, Final residual = 0, No Iterations 0
time step continuity errors : sum local = 7.12944e-10, global = -5.11319e-11, cumulative = 4.07117e-07
DILUPBiCG:  Solving for k, Initial residual = 0.0338297, Final residual = 4.85351e-09, No Iterations 3

Evolving reactingOneDim for region panelRegion
diagonal:  Solving for rho, Initial residual = 0, Final residual = 0, No Iterations 0
diagonal:  Solving for Yv, Initial residual = 0, Final residual = 0, No Iterations 0
DICPCG:  Solving for T, Initial residual = 0.0417363, Final residual = 2.69824e-18, No Iterations 1
pyrolysis min/max(T) = 292.974, 295.029

Pyrolysis: reactingOneDim
    Total gas mass produced  [kg] = 0
    Total solid mass lost    [kg] = 1.07025e-16
    Total pyrolysis gases  [kg/s] = 0
    Total heat release rate [J/s] = 0

ExecutionTime = 0.33 s  ClockTime = 0 s

Courant Number mean: 0.0125965 max: 0.0891269
deltaT = 0.00979276
Time = 0.121658

diagonal:  Solving for rho, Initial residual = 0, Final residual = 0, No Iterations 0
DILUPBiCG:  Solving for Ux, Initial residual = 0.0219387, Final residual = 8.61561e-09, No Iterations 3
DILUPBiCG:  Solving for Uz, Initial residual = 0.017905, Final residual = 6.20433e-09, No Iterations 3
DILUPBiCG:  Solving for O2, Initial residual = 0.0241553, Final residual = 2.36368e-11, No Iterations 3
max of O2 = 0.23301
min of O2 = 0.0030721
DILUPBiCG:  Solving for H2O, Initial residual = 0.0249267, Final residual = 3.01426e-11, No Iterations 3
max of H2O = 0.0521537
min of H2O = 0
DILUPBiCG:  Solving for C3H8, Initial residual = 0.0185991, Final residual = 3.59221e-09, No Iterations 2
max of C3H8 = 0.966469
min of C3H8 = 0
DILUPBiCG:  Solving for CO2, Initial residual = 0.0249267, Final residual = 3.01426e-11, No Iterations 3
max of CO2 = 0.0955557
min of CO2 = 0
max of N2 = 0.76699
min of N2 = 0
GAMG:  Solving for ILambda_0_0, Initial residual = 0.286297, Final residual = 4.60559e-16, No Iterations 1
GAMG:  Solving for ILambda_1_0, Initial residual = 0.284238, Final residual = 4.10763e-16, No Iterations 1
GAMG:  Solving for ILambda_2_0, Initial residual = 0.284238, Final residual = 4.10763e-16, No Iterations 1
GAMG:  Solving for ILambda_3_0, Initial residual = 0.286297, Final residual = 4.31491e-16, No Iterations 1
GAMG:  Solving for ILambda_4_0, Initial residual = 0.450592, Final residual = 1.18384e-16, No Iterations 1
GAMG:  Solving for ILambda_5_0, Initial residual = 0.45086, Final residual = 1.00152e-16, No Iterations 1
GAMG:  Solving for ILambda_6_0, Initial residual = 0.45086, Final residual = 9.37081e-17, No Iterations 1
GAMG:  Solving for ILambda_7_0, Initial residual = 0.450592, Final residual = 1.00218e-16, No Iterations 1
Radiation solver iter: 1
GAMG:  Solving for ILambda_0_0, Initial residual = 0.0959564, Final residual = 3.74021e-16, No Iterations 1
GAMG:  Solving for ILambda_1_0, Initial residual = 0.115519, Final residual = 5.29229e-16, No Iterations 1
GAMG:  Solving for ILambda_2_0, Initial residual = 0.115519, Final residual = 5.29229e-16, No Iterations 1
GAMG:  Solving for ILambda_3_0, Initial residual = 0.0959564, Final residual = 4.15218e-16, No Iterations 1
GAMG:  Solving for ILambda_4_0, Initial residual = 0.104423, Final residual = 8.83405e-17, No Iterations 1
GAMG:  Solving for ILambda_5_0, Initial residual = 0.104648, Final residual = 7.20131e-17, No Iterations 1
GAMG:  Solving for ILambda_6_0, Initial residual = 0.104648, Final residual = 7.45251e-17, No Iterations 1
GAMG:  Solving for ILambda_7_0, Initial residual = 0.104423, Final residual = 7.94643e-17, No Iterations 1
Radiation solver iter: 2
GAMG:  Solving for ILambda_0_0, Initial residual = 0.0505371, Final residual = 3.99311e-16, No Iterations 1
GAMG:  Solving for ILambda_1_0, Initial residual = 0.0464297, Final residual = 5.67345e-16, No Iterations 1
GAMG:  Solving for ILambda_2_0, Initial residual = 0.0464297, Final residual = 5.67345e-16, No Iterations 1
GAMG:  Solving for ILambda_3_0, Initial residual = 0.0505371, Final residual = 4.35091e-16, No Iterations 1
GAMG:  Solving for ILambda_4_0, Initial residual = 0.0483406, Final residual = 9.77825e-17, No Iterations 1
GAMG:  Solving for ILambda_5_0, Initial residual = 0.048441, Final residual = 8.00144e-17, No Iterations 1
GAMG:  Solving for ILambda_6_0, Initial residual = 0.048441, Final residual = 4.58723e-17, No Iterations 1
GAMG:  Solving for ILambda_7_0, Initial residual = 0.0483406, Final residual = 8.88181e-17, No Iterations 1
Radiation solver iter: 3
GAMG:  Solving for ILambda_0_0, Initial residual = 0.0212914, Final residual = 4.18476e-16, No Iterations 1
GAMG:  Solving for ILambda_1_0, Initial residual = 0.0195628, Final residual = 4.77528e-16, No Iterations 1
GAMG:  Solving for ILambda_2_0, Initial residual = 0.0195628, Final residual = 4.77528e-16, No Iterations 1
GAMG:  Solving for ILambda_3_0, Initial residual = 0.0212914, Final residual = 3.7095e-16, No Iterations 1
GAMG:  Solving for ILambda_4_0, Initial residual = 0.015952, Final residual = 5.51377e-17, No Iterations 1
GAMG:  Solving for ILambda_5_0, Initial residual = 0.0160023, Final residual = 1.16752e-16, No Iterations 1
GAMG:  Solving for ILambda_6_0, Initial residual = 0.0160023, Final residual = 1.24834e-16, No Iterations 1
GAMG:  Solving for ILambda_7_0, Initial residual = 0.015952, Final residual = 3.51931e-17, No Iterations 1
Radiation solver iter: 4
GAMG:  Solving for ILambda_0_0, Initial residual = 0.00609965, Final residual = 3.43957e-16, No Iterations 1
GAMG:  Solving for ILambda_1_0, Initial residual = 0.00560762, Final residual = 4.12402e-16, No Iterations 1
GAMG:  Solving for ILambda_2_0, Initial residual = 0.00560762, Final residual = 4.12402e-16, No Iterations 1
GAMG:  Solving for ILambda_3_0, Initial residual = 0.00609965, Final residual = 3.12437e-16, No Iterations 1
GAMG:  Solving for ILambda_4_0, Initial residual = 0.00725707, Final residual = 1.21644e-16, No Iterations 1
GAMG:  Solving for ILambda_5_0, Initial residual = 0.0072793, Final residual = 1.41426e-16, No Iterations 1
GAMG:  Solving for ILambda_6_0, Initial residual = 0.0072793, Final residual = 1.41001e-16, No Iterations 1
GAMG:  Solving for ILambda_7_0, Initial residual = 0.00725707, Final residual = 9.79299e-17, No Iterations 1
Radiation solver iter: 5
DILUPBiCG:  Solving for hs, Initial residual = 0.0249121, Final residual = 3.15843e-11, No Iterations 3
GAMG:  Solving for p_rgh, Initial residual = 0.0242765, Final residual = 0.000129424, No Iterations 4
diagonal:  Solving for rho, Initial residual = 0, Final residual = 0, No Iterations 0
time step continuity errors : sum local = 1.97917e-07, global = 4.40184e-08, cumulative = 4.51135e-07
GAMG:  Solving for p_rgh, Initial residual = 0.00123955, Final residual = 7.26002e-07, No Iterations 6
diagonal:  Solving for rho, Initial residual = 0, Final residual = 0, No Iterations 0
time step continuity errors : sum local = 1.10962e-09, global = 1.4027e-10, cumulative = 4.51276e-07
DILUPBiCG:  Solving for k, Initial residual = 0.0288885, Final residual = 3.14893e-09, No Iterations 3

Evolving reactingOneDim for region panelRegion
diagonal:  Solving for rho, Initial residual = 0, Final residual = 0, No Iterations 0
diagonal:  Solving for Yv, Initial residual = 0, Final residual = 0, No Iterations 0
DICPCG:  Solving for T, Initial residual = 0.537392, Final residual = 4.76646e-18, No Iterations 1
pyrolysis min/max(T) = 292.975, 329.827

Pyrolysis: reactingOneDim
    Total gas mass produced  [kg] = 0
    Total solid mass lost    [kg] = 1.14599e-16
    Total pyrolysis gases  [kg/s] = 0
    Total heat release rate [J/s] = 0

ExecutionTime = 0.36 s  ClockTime = 0 s

Courant Number mean: 0.0121633 max: 0.0857598
deltaT = 0.00979276
Time = 0.131451

diagonal:  Solving for rho, Initial residual = 0, Final residual = 0, No Iterations 0
DILUPBiCG:  Solving for Ux, Initial residual = 0.0222063, Final residual = 7.33351e-09, No Iterations 3
DILUPBiCG:  Solving for Uz, Initial residual = 0.0181658, Final residual = 5.75101e-09, No Iterations 3
DILUPBiCG:  Solving for O2, Initial residual = 0.0213384, Final residual = 1.79916e-11, No Iterations 3
max of O2 = 0.23301
min of O2 = 0.00269867
DILUPBiCG:  Solving for H2O, Initial residual = 0.0220512, Final residual = 5.14135e-11, No Iterations 3
max of H2O = 0.0545877
min of H2O = 0
DILUPBiCG:  Solving for C3H8, Initial residual = 0.0162055, Final residual = 1.78669e-09, No Iterations 2
max of C3H8 = 0.967263
min of C3H8 = 0
DILUPBiCG:  Solving for CO2, Initial residual = 0.0220512, Final residual = 5.14135e-11, No Iterations 3
max of CO2 = 0.100015
min of CO2 = 0
max of N2 = 0.76699
min of N2 = 0
DILUPBiCG:  Solving for hs, Initial residual = 0.0220392, Final residual = 5.98742e-11, No Iterations 3
GAMG:  Solving for p_rgh, Initial residual = 0.0239086, Final residual = 0.000221222, No Iterations 3
diagonal:  Solving for rho, Initial residual = 0, Final residual = 0, No Iterations 0
time step continuity errors : sum local = 3.40088e-07, global = 6.45554e-08, cumulative = 5.15831e-07
GAMG:  Solving for p_rgh, Initial residual = 0.00116658, Final residual = 5.86001e-07, No Iterations 6
diagonal:  Solving for rho, Initial residual = 0, Final residual = 0, No Iterations 0
time step continuity errors : sum local = 8.70794e-10, global = -6.55726e-11, cumulative = 5.15765e-07
DILUPBiCG:  Solving for k, Initial residual = 0.025109, Final residual = 2.08854e-09, No Iterations 3

Evolving reactingOneDim for region panelRegion
diagonal:  Solving for rho, Initial residual = 0, Final residual = 0, No Iterations 0
diagonal:  Solving for Yv, Initial residual = 0, Final residual = 0, No Iterations 0
DICPCG:  Solving for T, Initial residual = 0.178941, Final residual = 3.47653e-18, No Iterations 1
pyrolysis min/max(T) = 292.976, 333.66

Pyrolysis: reactingOneDim
    Total gas mass produced  [kg] = 0
    Total solid mass lost    [kg] = 1.22172e-16
    Total pyrolysis gases  [kg/s] = 0
    Total heat release rate [J/s] = 0

ExecutionTime = 0.38 s  ClockTime = 0 s

Courant Number mean: 0.0117609 max: 0.0826768
deltaT = 0.00979276
Time = 0.141243

diagonal:  Solving for rho, Initial residual = 0, Final residual = 0, No Iterations 0
DILUPBiCG:  Solving for Ux, Initial residual = 0.0214798, Final residual = 6.00644e-09, No Iterations 3
DILUPBiCG:  Solving for Uz, Initial residual = 0.0172162, Final residual = 4.9138e-09, No Iterations 3
DILUPBiCG:  Solving for O2, Initial residual = 0.0189871, Final residual = 1.57495e-11, No Iterations 3
max of O2 = 0.23301
min of O2 = 0.002372
DILUPBiCG:  Solving for H2O, Initial residual = 0.0196435, Final residual = 4.04296e-11, No Iterations 3
max of H2O = 0.0565847
min of H2O = 0
DILUPBiCG:  Solving for C3H8, Initial residual = 0.0145848, Final residual = 1.16863e-09, No Iterations 2
max of C3H8 = 0.968003
min of C3H8 = 0
DILUPBiCG:  Solving for CO2, Initial residual = 0.0196435, Final residual = 4.04296e-11, No Iterations 3
max of CO2 = 0.103674
min of CO2 = 0
max of N2 = 0.76699
min of N2 = 0
DILUPBiCG:  Solving for hs, Initial residual = 0.0196337, Final residual = 4.77585e-11, No Iterations 3
GAMG:  Solving for p_rgh, Initial residual = 0.0241051, Final residual = 0.000154516, No Iterations 4
diagonal:  Solving for rho, Initial residual = 0, Final residual = 0, No Iterations 0
time step continuity errors : sum local = 2.31573e-07, global = 3.66634e-08, cumulative = 5.52429e-07
GAMG:  Solving for p_rgh, Initial residual = 0.0012673, Final residual = 8.58812e-07, No Iterations 6
diagonal:  Solving for rho, Initial residual = 0, Final residual = 0, No Iterations 0
time step continuity errors : sum local = 1.29536e-09, global = 2.22606e-10, cumulative = 5.52651e-07
DILUPBiCG:  Solving for k, Initial residual = 0.0221505, Final residual = 1.44433e-09, No Iterations 3

Evolving reactingOneDim for region panelRegion
diagonal:  Solving for rho, Initial residual = 0, Final residual = 0, No Iterations 0
diagonal:  Solving for Yv, Initial residual = 0, Final residual = 0, No Iterations 0
DICPCG:  Solving for T, Initial residual = 0.107884, Final residual = 2.20381e-18, No Iterations 1
pyrolysis min/max(T) = 292.976, 337.359

Pyrolysis: reactingOneDim
    Total gas mass produced  [kg] = 0
    Total solid mass lost    [kg] = 1.29746e-16
    Total pyrolysis gases  [kg/s] = 0
    Total heat release rate [J/s] = 0

ExecutionTime = 0.39 s  ClockTime = 0 s

Courant Number mean: 0.0113691 max: 0.0803519
deltaT = 0.00979276
Time = 0.151036

diagonal:  Solving for rho, Initial residual = 0, Final residual = 0, No Iterations 0
DILUPBiCG:  Solving for Ux, Initial residual = 0.0215261, Final residual = 5.06852e-09, No Iterations 3
DILUPBiCG:  Solving for Uz, Initial residual = 0.0179482, Final residual = 4.7222e-09, No Iterations 3
DILUPBiCG:  Solving for O2, Initial residual = 0.0169877, Final residual = 1.38187e-11, No Iterations 3
max of O2 = 0.23301
min of O2 = 0.00208608
DILUPBiCG:  Solving for H2O, Initial residual = 0.0175913, Final residual = 4.01244e-11, No Iterations 3
max of H2O = 0.0581942
min of H2O = 0
DILUPBiCG:  Solving for C3H8, Initial residual = 0.0131997, Final residual = 9.5009e-10, No Iterations 2
max of C3H8 = 0.968698
min of C3H8 = 0
DILUPBiCG:  Solving for CO2, Initial residual = 0.0175913, Final residual = 4.01244e-11, No Iterations 3
max of CO2 = 0.106623
min of CO2 = 0
max of N2 = 0.76699
min of N2 = 0
DILUPBiCG:  Solving for hs, Initial residual = 0.0175831, Final residual = 5.6427e-11, No Iterations 3
GAMG:  Solving for p_rgh, Initial residual = 0.0254158, Final residual = 0.000175561, No Iterations 4
diagonal:  Solving for rho, Initial residual = 0, Final residual = 0, No Iterations 0
time step continuity errors : sum local = 2.66815e-07, global = -1.61574e-08, cumulative = 5.36494e-07
GAMG:  Solving for p_rgh, Initial residual = 0.00113764, Final residual = 4.83524e-07, No Iterations 6
diagonal:  Solving for rho, Initial residual = 0, Final residual = 0, No Iterations 0
time step continuity errors : sum local = 6.02886e-10, global = -4.65276e-11, cumulative = 5.36447e-07
DILUPBiCG:  Solving for k, Initial residual = 0.020132, Final residual = 1.06169e-09, No Iterations 3

Evolving reactingOneDim for region panelRegion
diagonal:  Solving for rho, Initial residual = 0, Final residual = 0, No Iterations 0
diagonal:  Solving for Yv, Initial residual = 0, Final residual = 0, No Iterations 0
DICPCG:  Solving for T, Initial residual = 0.0775336, Final residual = 3.02072e-18, No Iterations 1
pyrolysis min/max(T) = 292.977, 340.888

Pyrolysis: reactingOneDim
    Total gas mass produced  [kg] = 0
    Total solid mass lost    [kg] = 1.3732e-16
    Total pyrolysis gases  [kg/s] = 0
    Total heat release rate [J/s] = 0

ExecutionTime = 0.41 s  ClockTime = 0 s

Courant Number mean: 0.0110908 max: 0.0792429
deltaT = 0.00979276
Time = 0.160829

diagonal:  Solving for rho, Initial residual = 0, Final residual = 0, No Iterations 0
DILUPBiCG:  Solving for Ux, Initial residual = 0.0161239, Final residual = 3.10906e-09, No Iterations 3
DILUPBiCG:  Solving for Uz, Initial residual = 0.0149269, Final residual = 3.32201e-09, No Iterations 3
DILUPBiCG:  Solving for O2, Initial residual = 0.0151402, Final residual = 4.55126e-09, No Iterations 2
max of O2 = 0.23301
min of O2 = 0.00183509
DILUPBiCG:  Solving for H2O, Initial residual = 0.0156721, Final residual = 2.36259e-10, No Iterations 3
max of H2O = 0.059463
min of H2O = 0
DILUPBiCG:  Solving for C3H8, Initial residual = 0.0119537, Final residual = 7.59771e-10, No Iterations 2
max of C3H8 = 0.969362
min of C3H8 = 0
DILUPBiCG:  Solving for CO2, Initial residual = 0.0156721, Final residual = 2.36259e-10, No Iterations 3
max of CO2 = 0.108948
min of CO2 = 0
max of N2 = 0.76699
min of N2 = 0
DILUPBiCG:  Solving for hs, Initial residual = 0.0156659, Final residual = 7.41332e-11, No Iterations 3
GAMG:  Solving for p_rgh, Initial residual = 0.0358849, Final residual = 0.000138757, No Iterations 5
diagonal:  Solving for rho, Initial residual = 0, Final residual = 0, No Iterations 0
time step continuity errors : sum local = 1.7805e-07, global = 1.1142e-08, cumulative = 5.47589e-07
GAMG:  Solving for p_rgh, Initial residual = 0.00138473, Final residual = 5.27143e-07, No Iterations 6
diagonal:  Solving for rho, Initial residual = 0, Final residual = 0, No Iterations 0
time step continuity errors : sum local = 8.07863e-10, global = 6.04143e-11, cumulative = 5.4765e-07
DILUPBiCG:  Solving for k, Initial residual = 0.0181669, Final residual = 9.5197e-10, No Iterations 3

Evolving reactingOneDim for region panelRegion
diagonal:  Solving for rho, Initial residual = 0, Final residual = 0, No Iterations 0
diagonal:  Solving for Yv, Initial residual = 0, Final residual = 0, No Iterations 0
DICPCG:  Solving for T, Initial residual = 0.0606197, Final residual = 1.64448e-18, No Iterations 1
pyrolysis min/max(T) = 292.978, 344.264

Pyrolysis: reactingOneDim
    Total gas mass produced  [kg] = 0
    Total solid mass lost    [kg] = 1.44894e-16
    Total pyrolysis gases  [kg/s] = 0
    Total heat release rate [J/s] = 0

ExecutionTime = 0.42 s  ClockTime = 0 s

Courant Number mean: 0.0107374 max: 0.0762963
deltaT = 0.00979276
Time = 0.170622

diagonal:  Solving for rho, Initial residual = 0, Final residual = 0, No Iterations 0
DILUPBiCG:  Solving for Ux, Initial residual = 0.0212371, Final residual = 3.43352e-09, No Iterations 3
DILUPBiCG:  Solving for Uz, Initial residual = 0.0187681, Final residual = 3.76601e-09, No Iterations 3
DILUPBiCG:  Solving for O2, Initial residual = 0.0131873, Final residual = 4.04547e-09, No Iterations 2
max of O2 = 0.23301
min of O2 = 0.00161525
DILUPBiCG:  Solving for H2O, Initial residual = 0.0135849, Final residual = 1.96868e-11, No Iterations 3
max of H2O = 0.0631132
min of H2O = 0
DILUPBiCG:  Solving for C3H8, Initial residual = 0.0109234, Final residual = 4.30965e-10, No Iterations 2
max of C3H8 = 0.969989
min of C3H8 = 0
DILUPBiCG:  Solving for CO2, Initial residual = 0.0135849, Final residual = 1.96868e-11, No Iterations 3
max of CO2 = 0.115635
min of CO2 = 0
max of N2 = 0.76699
min of N2 = 0
DILUPBiCG:  Solving for hs, Initial residual = 0.0135766, Final residual = 2.12579e-11, No Iterations 3
GAMG:  Solving for p_rgh, Initial residual = 0.0325615, Final residual = 0.000160873, No Iterations 5
diagonal:  Solving for rho, Initial residual = 0, Final residual = 0, No Iterations 0
time step continuity errors : sum local = 2.51809e-07, global = 2.12931e-08, cumulative = 5.68943e-07
GAMG:  Solving for p_rgh, Initial residual = 0.00109071, Final residual = 4.25064e-07, No Iterations 6
diagonal:  Solving for rho, Initial residual = 0, Final residual = 0, No Iterations 0
time step continuity errors : sum local = 9.97727e-10, global = 7.17362e-11, cumulative = 5.69015e-07
DILUPBiCG:  Solving for k, Initial residual = 0.0157939, Final residual = 5.99433e-10, No Iterations 3

Evolving reactingOneDim for region panelRegion
diagonal:  Solving for rho, Initial residual = 0, Final residual = 0, No Iterations 0
diagonal:  Solving for Yv, Initial residual = 0, Final residual = 0, No Iterations 0
DICPCG:  Solving for T, Initial residual = 0.0498657, Final residual = 1.0484e-18, No Iterations 1
pyrolysis min/max(T) = 292.978, 347.504

Pyrolysis: reactingOneDim
    Total gas mass produced  [kg] = 0
    Total solid mass lost    [kg] = 1.52467e-16
    Total pyrolysis gases  [kg/s] = 0
    Total heat release rate [J/s] = 0

ExecutionTime = 0.43 s  ClockTime = 0 s

Courant Number mean: 0.0101345 max: 0.0718093
deltaT = 0.00979276
Time = 0.180414

diagonal:  Solving for rho, Initial residual = 0, Final residual = 0, No Iterations 0
DILUPBiCG:  Solving for Ux, Initial residual = 0.0413261, Final residual = 5.12479e-09, No Iterations 3
DILUPBiCG:  Solving for Uz, Initial residual = 0.0341677, Final residual = 5.39693e-09, No Iterations 3
DILUPBiCG:  Solving for O2, Initial residual = 0.0114304, Final residual = 3.55098e-09, No Iterations 2
max of O2 = 0.23301
min of O2 = 0.00141209
DILUPBiCG:  Solving for H2O, Initial residual = 0.011713, Final residual = 4.97893e-09, No Iterations 2
max of H2O = 0.0658944
min of H2O = 0
DILUPBiCG:  Solving for C3H8, Initial residual = 0.0101883, Final residual = 4.76306e-10, No Iterations 2
max of C3H8 = 0.970635
min of C3H8 = 0
DILUPBiCG:  Solving for CO2, Initial residual = 0.011713, Final residual = 4.97893e-09, No Iterations 2
max of CO2 = 0.120731
min of CO2 = 0
max of N2 = 0.76699
min of N2 = 0
DILUPBiCG:  Solving for hs, Initial residual = 0.0117044, Final residual = 4.16835e-09, No Iterations 2
GAMG:  Solving for p_rgh, Initial residual = 0.0275328, Final residual = 0.000194667, No Iterations 4
diagonal:  Solving for rho, Initial residual = 0, Final residual = 0, No Iterations 0
time step continuity errors : sum local = 4.58244e-07, global = 2.34018e-08, cumulative = 5.92417e-07
GAMG:  Solving for p_rgh, Initial residual = 0.000934635, Final residual = 4.85273e-07, No Iterations 6
diagonal:  Solving for rho, Initial residual = 0, Final residual = 0, No Iterations 0
time step continuity errors : sum local = 1.34466e-09, global = 1.03959e-10, cumulative = 5.9252e-07
DILUPBiCG:  Solving for k, Initial residual = 0.0137479, Final residual = 3.53233e-10, No Iterations 3

Evolving reactingOneDim for region panelRegion
diagonal:  Solving for rho, Initial residual = 0, Final residual = 0, No Iterations 0
diagonal:  Solving for Yv, Initial residual = 0, Final residual = 0, No Iterations 0
DICPCG:  Solving for T, Initial residual = 0.0423341, Final residual = 7.56452e-18, No Iterations 1
pyrolysis min/max(T) = 292.979, 350.619

Pyrolysis: reactingOneDim
    Total gas mass produced  [kg] = 0
    Total solid mass lost    [kg] = 1.60041e-16
    Total pyrolysis gases  [kg/s] = 0
    Total heat release rate [J/s] = 0

ExecutionTime = 0.45 s  ClockTime = 0 s

Courant Number mean: 0.00942287 max: 0.0683306
deltaT = 0.00979276
Time = 0.190207

diagonal:  Solving for rho, Initial residual = 0, Final residual = 0, No Iterations 0
DILUPBiCG:  Solving for Ux, Initial residual = 0.0558641, Final residual = 5.15989e-09, No Iterations 3
DILUPBiCG:  Solving for Uz, Initial residual = 0.0438685, Final residual = 5.16111e-09, No Iterations 3
DILUPBiCG:  Solving for O2, Initial residual = 0.00997238, Final residual = 3.49984e-09, No Iterations 2
max of O2 = 0.23301
min of O2 = 0.00123746
DILUPBiCG:  Solving for H2O, Initial residual = 0.0101717, Final residual = 4.19101e-09, No Iterations 2
max of H2O = 0.0675542
min of H2O = 0
DILUPBiCG:  Solving for C3H8, Initial residual = 0.00930266, Final residual = 2.31949e-10, No Iterations 2
max of C3H8 = 0.971201
min of C3H8 = 0
DILUPBiCG:  Solving for CO2, Initial residual = 0.0101717, Final residual = 4.19101e-09, No Iterations 2
max of CO2 = 0.123772
min of CO2 = 0
max of N2 = 0.76699
min of N2 = 0
DILUPBiCG:  Solving for hs, Initial residual = 0.0101616, Final residual = 3.35075e-09, No Iterations 2
GAMG:  Solving for p_rgh, Initial residual = 0.0176669, Final residual = 0.000112827, No Iterations 3
diagonal:  Solving for rho, Initial residual = 0, Final residual = 0, No Iterations 0
time step continuity errors : sum local = 3.13019e-07, global = 3.34417e-08, cumulative = 6.25962e-07
GAMG:  Solving for p_rgh, Initial residual = 0.000635715, Final residual = 9.95479e-07, No Iterations 5
diagonal:  Solving for rho, Initial residual = 0, Final residual = 0, No Iterations 0
time step continuity errors : sum local = 2.68593e-09, global = -2.03773e-10, cumulative = 6.25758e-07
DILUPBiCG:  Solving for k, Initial residual = 0.0123029, Final residual = 2.14178e-10, No Iterations 3

Evolving reactingOneDim for region panelRegion
diagonal:  Solving for rho, Initial residual = 0, Final residual = 0, No Iterations 0
diagonal:  Solving for Yv, Initial residual = 0, Final residual = 0, No Iterations 0
DICPCG:  Solving for T, Initial residual = 0.0368171, Final residual = 9.2065e-20, No Iterations 1
pyrolysis min/max(T) = 292.979, 353.62

Pyrolysis: reactingOneDim
    Total gas mass produced  [kg] = 0
    Total solid mass lost    [kg] = 1.67615e-16
    Total pyrolysis gases  [kg/s] = 0
    Total heat release rate [J/s] = 0

ExecutionTime = 0.46 s  ClockTime = 0 s

Courant Number mean: 0.00876959 max: 0.0653094
deltaT = 0.00979276
Time = 0.2

diagonal:  Solving for rho, Initial residual = 0, Final residual = 0, No Iterations 0
DILUPBiCG:  Solving for Ux, Initial residual = 0.0576053, Final residual = 3.97843e-09, No Iterations 3
DILUPBiCG:  Solving for Uz, Initial residual = 0.0443462, Final residual = 3.84035e-09, No Iterations 3
DILUPBiCG:  Solving for O2, Initial residual = 0.0087746, Final residual = 3.21594e-09, No Iterations 2
max of O2 = 0.23301
min of O2 = 0.00108593
DILUPBiCG:  Solving for H2O, Initial residual = 0.00891217, Final residual = 2.5173e-09, No Iterations 2
max of H2O = 0.0701882
min of H2O = 0
DILUPBiCG:  Solving for C3H8, Initial residual = 0.00852584, Final residual = 1.06326e-10, No Iterations 2
max of C3H8 = 0.971718
min of C3H8 = 0
DILUPBiCG:  Solving for CO2, Initial residual = 0.00891217, Final residual = 2.5173e-09, No Iterations 2
max of CO2 = 0.128598
min of CO2 = 0
max of N2 = 0.76699
min of N2 = 0
DILUPBiCG:  Solving for hs, Initial residual = 0.00890118, Final residual = 2.09241e-09, No Iterations 2
GAMG:  Solving for p_rgh, Initial residual = 0.0128739, Final residual = 9.16971e-05, No Iterations 4
diagonal:  Solving for rho, Initial residual = 0, Final residual = 0, No Iterations 0
time step continuity errors : sum local = 2.48419e-07, global = -1.4622e-08, cumulative = 6.11136e-07
GAMG:  Solving for p_rgh, Initial residual = 0.000529596, Final residual = 7.27275e-07, No Iterations 5
diagonal:  Solving for rho, Initial residual = 0, Final residual = 0, No Iterations 0
time step continuity errors : sum local = 1.77333e-09, global = -1.35563e-10, cumulative = 6.11001e-07
DILUPBiCG:  Solving for k, Initial residual = 0.0114217, Final residual = 1.64157e-10, No Iterations 3

Evolving reactingOneDim for region panelRegion
diagonal:  Solving for rho, Initial residual = 0, Final residual = 0, No Iterations 0
diagonal:  Solving for Yv, Initial residual = 0, Final residual = 0, No Iterations 0
DICPCG:  Solving for T, Initial residual = 0.0326063, Final residual = 3.92121e-18, No Iterations 1
pyrolysis min/max(T) = 292.98, 356.52

Pyrolysis: reactingOneDim
    Total gas mass produced  [kg] = 0
    Total solid mass lost    [kg] = 1.75188e-16
    Total pyrolysis gases  [kg/s] = 0
    Total heat release rate [J/s] = 0

ExecutionTime = 0.49 s  ClockTime = 0 s +

[...]
GAMG:  Solving for ILambda_3_0, Initial residual = 0.116921, Final residual = 7.20364e-16, No Iterations 1
GAMG:  Solving for ILambda_4_0, Initial residual = 0.145758, Final residual = 7.07282e-17, No Iterations 1
GAMG:  Solving for ILambda_5_0, Initial residual = 0.145758, Final residual = 6.59299e-17, No Iterations 1
GAMG:  Solving for ILambda_6_0, Initial residual = 0.145758, Final residual = 7.15991e-17, No Iterations 1
GAMG:  Solving for ILambda_7_0, Initial residual = 0.145758, Final residual = 6.2712e-17, No Iterations 1
Radiation solver iter: 1
GAMG:  Solving for ILambda_0_0, Initial residual = 0.069281, Final residual = 7.64285e-16, No Iterations 1
GAMG:  Solving for ILambda_1_0, Initial residual = 0.0751815, Final residual = 1.0935e-15, No Iterations 1
GAMG:  Solving for ILambda_2_0, Initial residual = 0.0751815, Final residual = 1.0935e-15, No Iterations 1
GAMG:  Solving for ILambda_3_0, Initial residual = 0.069281, Final residual = 7.6059e-16, No Iterations 1
GAMG:  Solving for ILambda_4_0, Initial residual = 0.0512733, Final residual = 6.32726e-17, No Iterations 1
GAMG:  Solving for ILambda_5_0, Initial residual = 0.0512733, Final residual = 6.98231e-17, No Iterations 1
GAMG:  Solving for ILambda_6_0, Initial residual = 0.0512733, Final residual = 5.09225e-17, No Iterations 1
GAMG:  Solving for ILambda_7_0, Initial residual = 0.0512733, Final residual = 5.20875e-17, No Iterations 1
Radiation solver iter: 2
GAMG:  Solving for ILambda_0_0, Initial residual = 0.0265383, Final residual = 7.72002e-16, No Iterations 1
GAMG:  Solving for ILambda_1_0, Initial residual = 0.0254765, Final residual = 1.16293e-15, No Iterations 1
GAMG:  Solving for ILambda_2_0, Initial residual = 0.0254765, Final residual = 1.16293e-15, No Iterations 1
GAMG:  Solving for ILambda_3_0, Initial residual = 0.0265383, Final residual = 7.22223e-16, No Iterations 1
GAMG:  Solving for ILambda_4_0, Initial residual = 0.0191187, Final residual = 5.59051e-17, No Iterations 1
GAMG:  Solving for ILambda_5_0, Initial residual = 0.0191187, Final residual = 5.69284e-17, No Iterations 1
GAMG:  Solving for ILambda_6_0, Initial residual = 0.0191187, Final residual = 6.97206e-17, No Iterations 1
GAMG:  Solving for ILambda_7_0, Initial residual = 0.0191187, Final residual = 3.72483e-17, No Iterations 1
Radiation solver iter: 3
GAMG:  Solving for ILambda_0_0, Initial residual = 0.00885499, Final residual = 6.76884e-16, No Iterations 1
GAMG:  Solving for ILambda_1_0, Initial residual = 0.00851393, Final residual = 9.98723e-16, No Iterations 1
GAMG:  Solving for ILambda_2_0, Initial residual = 0.00851393, Final residual = 9.98723e-16, No Iterations 1
GAMG:  Solving for ILambda_3_0, Initial residual = 0.00885499, Final residual = 6.79469e-16, No Iterations 1
GAMG:  Solving for ILambda_4_0, Initial residual = 0.00894472, Final residual = 7.00193e-17, No Iterations 1
GAMG:  Solving for ILambda_5_0, Initial residual = 0.00894472, Final residual = 6.73701e-17, No Iterations 1
GAMG:  Solving for ILambda_6_0, Initial residual = 0.00894472, Final residual = 6.39721e-17, No Iterations 1
GAMG:  Solving for ILambda_7_0, Initial residual = 0.00894472, Final residual = 4.63724e-17, No Iterations 1
Radiation solver iter: 4
GAMG:  Solving for ILambda_0_0, Initial residual = 0.00418906, Final residual = 7.86607e-16, No Iterations 1
GAMG:  Solving for ILambda_1_0, Initial residual = 0.00402745, Final residual = 1.04043e-15, No Iterations 1
GAMG:  Solving for ILambda_2_0, Initial residual = 0.00402745, Final residual = 1.04043e-15, No Iterations 1
GAMG:  Solving for ILambda_3_0, Initial residual = 0.00418906, Final residual = 6.9287e-16, No Iterations 1
GAMG:  Solving for ILambda_4_0, Initial residual = 0.00393045, Final residual = 4.66207e-17, No Iterations 1
GAMG:  Solving for ILambda_5_0, Initial residual = 0.00393045, Final residual = 4.86464e-17, No Iterations 1
GAMG:  Solving for ILambda_6_0, Initial residual = 0.00393045, Final residual = 6.0273e-17, No Iterations 1
GAMG:  Solving for ILambda_7_0, Initial residual = 0.00393045, Final residual = 5.55129e-17, No Iterations 1
Radiation solver iter: 5
DILUPBiCG:  Solving for hs, Initial residual = 0.00495968, Final residual = 2.57912e-09, No Iterations 3
GAMG:  Solving for p_rgh, Initial residual = 0.0311097, Final residual = 0.000124547, No Iterations 3
diagonal:  Solving for rho, Initial residual = 0, Final residual = 0, No Iterations 0
time step continuity errors : sum local = 4.33455e-06, global = -1.62066e-06, cumulative = 0.00103894
GAMG:  Solving for p_rgh, Initial residual = 0.00281897, Final residual = 4.66613e-07, No Iterations 7
diagonal:  Solving for rho, Initial residual = 0, Final residual = 0, No Iterations 0
time step continuity errors : sum local = 1.66075e-08, global = 1.33215e-09, cumulative = 0.00103895
DILUPBiCG:  Solving for k, Initial residual = 0.00198812, Final residual = 1.60422e-10, No Iterations 3

Evolving reactingOneDim for region panelRegion
diagonal:  Solving for rho, Initial residual = 0, Final residual = 0, No Iterations 0
diagonal:  Solving for Yv, Initial residual = 0, Final residual = 0, No Iterations 0
DICPCG:  Solving for T, Initial residual = 0.00569959, Final residual = 3.63968e-19, No Iterations 1
pyrolysis min/max(T) = 336.655, 730.047

Pyrolysis: reactingOneDim
    Total gas mass produced  [kg] = 0.00022503
    Total solid mass lost    [kg] = -0.00022503
    Total pyrolysis gases  [kg/s] = 0.00051559
    Total heat release rate [J/s] = -807.992

ExecutionTime = 5.26 s  ClockTime = 5 s

Courant Number mean: 0.058929 max: 2.69282
deltaT = 0.00947368
Time = 2.95263

diagonal:  Solving for rho, Initial residual = 0, Final residual = 0, No Iterations 0
DILUPBiCG:  Solving for Ux, Initial residual = 0.0459826, Final residual = 2.06326e-08, No Iterations 3
DILUPBiCG:  Solving for Uz, Initial residual = 0.00611507, Final residual = 3.62729e-09, No Iterations 3
DILUPBiCG:  Solving for O2, Initial residual = 0.0049919, Final residual = 9.60949e-10, No Iterations 3
max of O2 = 0.23301
min of O2 = 0.000932096
DILUPBiCG:  Solving for H2O, Initial residual = 0.00504223, Final residual = 1.72117e-09, No Iterations 3
max of H2O = 0.0821048
min of H2O = 0
DILUPBiCG:  Solving for C3H8, Initial residual = 0.00552942, Final residual = 1.56435e-09, No Iterations 3
max of C3H8 = 0.889511
min of C3H8 = 0
DILUPBiCG:  Solving for CO2, Initial residual = 0.00504223, Final residual = 1.72117e-09, No Iterations 3
max of CO2 = 0.150432
min of CO2 = 0
max of N2 = 0.76699
min of N2 = 0
DILUPBiCG:  Solving for hs, Initial residual = 0.00507385, Final residual = 1.77939e-09, No Iterations 3
GAMG:  Solving for p_rgh, Initial residual = 0.0319827, Final residual = 0.000120298, No Iterations 3
diagonal:  Solving for rho, Initial residual = 0, Final residual = 0, No Iterations 0
time step continuity errors : sum local = 4.24633e-06, global = -1.65792e-06, cumulative = 0.00103729
GAMG:  Solving for p_rgh, Initial residual = 0.00285444, Final residual = 3.88314e-07, No Iterations 7
diagonal:  Solving for rho, Initial residual = 0, Final residual = 0, No Iterations 0
time step continuity errors : sum local = 1.40664e-08, global = 1.15909e-09, cumulative = 0.00103729
DILUPBiCG:  Solving for k, Initial residual = 0.0020931, Final residual = 1.62613e-10, No Iterations 3

Evolving reactingOneDim for region panelRegion
diagonal:  Solving for rho, Initial residual = 0, Final residual = 0, No Iterations 0
diagonal:  Solving for Yv, Initial residual = 0, Final residual = 0, No Iterations 0
DICPCG:  Solving for T, Initial residual = 0.00559998, Final residual = 1.38013e-18, No Iterations 1
pyrolysis min/max(T) = 336.972, 731.652

Pyrolysis: reactingOneDim
    Total gas mass produced  [kg] = 0.000230109
    Total solid mass lost    [kg] = -0.000230109
    Total pyrolysis gases  [kg/s] = 0.000536197
    Total heat release rate [J/s] = -840.285

ExecutionTime = 5.28 s  ClockTime = 5 s

Courant Number mean: 0.0588992 max: 2.70929
deltaT = 0.00947368
Time = 2.96211

diagonal:  Solving for rho, Initial residual = 0, Final residual = 0, No Iterations 0
DILUPBiCG:  Solving for Ux, Initial residual = 0.0413502, Final residual = 1.50557e-08, No Iterations 3
DILUPBiCG:  Solving for Uz, Initial residual = 0.00616205, Final residual = 2.63752e-09, No Iterations 3
DILUPBiCG:  Solving for O2, Initial residual = 0.00504271, Final residual = 8.78275e-10, No Iterations 3
max of O2 = 0.23301
min of O2 = 0.000896747
DILUPBiCG:  Solving for H2O, Initial residual = 0.00514099, Final residual = 1.50134e-09, No Iterations 3
max of H2O = 0.0815349
min of H2O = 0
DILUPBiCG:  Solving for C3H8, Initial residual = 0.00583764, Final residual = 8.04153e-10, No Iterations 3
max of C3H8 = 0.890401
min of C3H8 = 0
DILUPBiCG:  Solving for CO2, Initial residual = 0.00514099, Final residual = 1.50134e-09, No Iterations 3
max of CO2 = 0.149388
min of CO2 = 0
max of N2 = 0.76699
min of N2 = 0
DILUPBiCG:  Solving for hs, Initial residual = 0.00517084, Final residual = 1.54865e-09, No Iterations 3
GAMG:  Solving for p_rgh, Initial residual = 0.0318377, Final residual = 8.28731e-05, No Iterations 3
diagonal:  Solving for rho, Initial residual = 0, Final residual = 0, No Iterations 0
time step continuity errors : sum local = 2.97455e-06, global = -1.61389e-06, cumulative = 0.00103568
GAMG:  Solving for p_rgh, Initial residual = 0.00288871, Final residual = 4.77813e-07, No Iterations 7
diagonal:  Solving for rho, Initial residual = 0, Final residual = 0, No Iterations 0
time step continuity errors : sum local = 1.77018e-08, global = 1.40357e-09, cumulative = 0.00103568
DILUPBiCG:  Solving for k, Initial residual = 0.00219452, Final residual = 1.55756e-10, No Iterations 3

Evolving reactingOneDim for region panelRegion
diagonal:  Solving for rho, Initial residual = 0, Final residual = 0, No Iterations 0
diagonal:  Solving for Yv, Initial residual = 0, Final residual = 0, No Iterations 0
DICPCG:  Solving for T, Initial residual = 0.00554576, Final residual = 5.8367e-19, No Iterations 1
pyrolysis min/max(T) = 337.289, 733.231

Pyrolysis: reactingOneDim
    Total gas mass produced  [kg] = 0.00023532
    Total solid mass lost    [kg] = -0.00023532
    Total pyrolysis gases  [kg/s] = 0.000549989
    Total heat release rate [J/s] = -861.899

ExecutionTime = 5.29 s  ClockTime = 5 s

Courant Number mean: 0.058942 max: 2.7176
deltaT = 0.00947368
Time = 2.97158

diagonal:  Solving for rho, Initial residual = 0, Final residual = 0, No Iterations 0
DILUPBiCG:  Solving for Ux, Initial residual = 0.0365349, Final residual = 1.23267e-08, No Iterations 3
DILUPBiCG:  Solving for Uz, Initial residual = 0.00616289, Final residual = 2.45702e-09, No Iterations 3
DILUPBiCG:  Solving for O2, Initial residual = 0.00512266, Final residual = 8.9168e-10, No Iterations 3
max of O2 = 0.23301
min of O2 = 0.000867608
DILUPBiCG:  Solving for H2O, Initial residual = 0.00520735, Final residual = 2.15343e-09, No Iterations 3
max of H2O = 0.0811779
min of H2O = 0
DILUPBiCG:  Solving for C3H8, Initial residual = 0.00595131, Final residual = 8.7782e-10, No Iterations 3
max of C3H8 = 0.894065
min of C3H8 = 0
DILUPBiCG:  Solving for CO2, Initial residual = 0.00520735, Final residual = 2.15343e-09, No Iterations 3
max of CO2 = 0.148734
min of CO2 = 0
max of N2 = 0.76699
min of N2 = 0
DILUPBiCG:  Solving for hs, Initial residual = 0.00522916, Final residual = 2.23657e-09, No Iterations 3
GAMG:  Solving for p_rgh, Initial residual = 0.0312797, Final residual = 0.000160295, No Iterations 3
diagonal:  Solving for rho, Initial residual = 0, Final residual = 0, No Iterations 0
time step continuity errors : sum local = 5.89813e-06, global = -2.09776e-07, cumulative = 0.00103547
GAMG:  Solving for p_rgh, Initial residual = 0.00286772, Final residual = 8.96485e-07, No Iterations 6
diagonal:  Solving for rho, Initial residual = 0, Final residual = 0, No Iterations 0
time step continuity errors : sum local = 3.31042e-08, global = 2.84382e-09, cumulative = 0.00103547
DILUPBiCG:  Solving for k, Initial residual = 0.00232205, Final residual = 1.49667e-10, No Iterations 3

Evolving reactingOneDim for region panelRegion
diagonal:  Solving for rho, Initial residual = 0, Final residual = 0, No Iterations 0
diagonal:  Solving for Yv, Initial residual = 0, Final residual = 0, No Iterations 0
DICPCG:  Solving for T, Initial residual = 0.00550404, Final residual = 5.33707e-19, No Iterations 1
pyrolysis min/max(T) = 337.606, 734.763

Pyrolysis: reactingOneDim
    Total gas mass produced  [kg] = 0.00024064
    Total solid mass lost    [kg] = -0.00024064
    Total pyrolysis gases  [kg/s] = 0.000561555
    Total heat release rate [J/s] = -880.026

ExecutionTime = 5.3 s  ClockTime = 5 s

Courant Number mean: 0.0591265 max: 2.73107
deltaT = 0.00947368
Time = 2.98105

diagonal:  Solving for rho, Initial residual = 0, Final residual = 0, No Iterations 0
DILUPBiCG:  Solving for Ux, Initial residual = 0.0390427, Final residual = 1.17413e-08, No Iterations 3
DILUPBiCG:  Solving for Uz, Initial residual = 0.00646359, Final residual = 2.16386e-09, No Iterations 3
DILUPBiCG:  Solving for O2, Initial residual = 0.00523326, Final residual = 1.09256e-09, No Iterations 3
max of O2 = 0.23301
min of O2 = 0.000844232
DILUPBiCG:  Solving for H2O, Initial residual = 0.00532138, Final residual = 1.76469e-09, No Iterations 3
max of H2O = 0.0811081
min of H2O = 0
DILUPBiCG:  Solving for C3H8, Initial residual = 0.00611166, Final residual = 9.46228e-10, No Iterations 3
max of C3H8 = 0.896005
min of C3H8 = 0
DILUPBiCG:  Solving for CO2, Initial residual = 0.00532138, Final residual = 1.76469e-09, No Iterations 3
max of CO2 = 0.148606
min of CO2 = 0
max of N2 = 0.76699
min of N2 = 0
DILUPBiCG:  Solving for hs, Initial residual = 0.00534551, Final residual = 1.80512e-09, No Iterations 3
GAMG:  Solving for p_rgh, Initial residual = 0.0340173, Final residual = 0.000119834, No Iterations 3
diagonal:  Solving for rho, Initial residual = 0, Final residual = 0, No Iterations 0
time step continuity errors : sum local = 4.38303e-06, global = -2.47187e-06, cumulative = 0.001033
GAMG:  Solving for p_rgh, Initial residual = 0.00313861, Final residual = 5.07532e-07, No Iterations 7
diagonal:  Solving for rho, Initial residual = 0, Final residual = 0, No Iterations 0
time step continuity errors : sum local = 1.8895e-08, global = 1.47666e-09, cumulative = 0.001033
DILUPBiCG:  Solving for k, Initial residual = 0.00242535, Final residual = 1.45408e-10, No Iterations 3

Evolving reactingOneDim for region panelRegion
diagonal:  Solving for rho, Initial residual = 0, Final residual = 0, No Iterations 0
diagonal:  Solving for Yv, Initial residual = 0, Final residual = 0, No Iterations 0
DICPCG:  Solving for T, Initial residual = 0.00546791, Final residual = 4.47354e-19, No Iterations 1
pyrolysis min/max(T) = 337.923, 736.288

Pyrolysis: reactingOneDim
    Total gas mass produced  [kg] = 0.000246061
    Total solid mass lost    [kg] = -0.000246061
    Total pyrolysis gases  [kg/s] = 0.000572231
    Total heat release rate [J/s] = -896.755

ExecutionTime = 5.32 s  ClockTime = 5 s

Courant Number mean: 0.0593108 max: 2.74639
deltaT = 0.00947368
Time = 2.99053

diagonal:  Solving for rho, Initial residual = 0, Final residual = 0, No Iterations 0
DILUPBiCG:  Solving for Ux, Initial residual = 0.0372701, Final residual = 1.09803e-08, No Iterations 3
DILUPBiCG:  Solving for Uz, Initial residual = 0.00663818, Final residual = 2.50261e-09, No Iterations 3
DILUPBiCG:  Solving for O2, Initial residual = 0.00536054, Final residual = 1.14032e-09, No Iterations 3
max of O2 = 0.23301
min of O2 = 0.000828827
DILUPBiCG:  Solving for H2O, Initial residual = 0.00543753, Final residual = 1.87941e-09, No Iterations 3
max of H2O = 0.0807855
min of H2O = 0
DILUPBiCG:  Solving for C3H8, Initial residual = 0.00605109, Final residual = 1.11524e-09, No Iterations 3
max of C3H8 = 0.897459
min of C3H8 = 0
DILUPBiCG:  Solving for CO2, Initial residual = 0.00543753, Final residual = 1.87941e-09, No Iterations 3
max of CO2 = 0.148015
min of CO2 = 0
max of N2 = 0.76699
min of N2 = 0
DILUPBiCG:  Solving for hs, Initial residual = 0.00545352, Final residual = 1.93287e-09, No Iterations 3
GAMG:  Solving for p_rgh, Initial residual = 0.0323613, Final residual = 0.000134378, No Iterations 3
diagonal:  Solving for rho, Initial residual = 0, Final residual = 0, No Iterations 0
time step continuity errors : sum local = 4.96216e-06, global = -1.58431e-06, cumulative = 0.00103142
GAMG:  Solving for p_rgh, Initial residual = 0.00300264, Final residual = 5.29825e-07, No Iterations 7
diagonal:  Solving for rho, Initial residual = 0, Final residual = 0, No Iterations 0
time step continuity errors : sum local = 2.03862e-08, global = 1.57654e-09, cumulative = 0.00103142
DILUPBiCG:  Solving for k, Initial residual = 0.00267977, Final residual = 1.8006e-10, No Iterations 3

Evolving reactingOneDim for region panelRegion
diagonal:  Solving for rho, Initial residual = 0, Final residual = 0, No Iterations 0
diagonal:  Solving for Yv, Initial residual = 0, Final residual = 0, No Iterations 0
DICPCG:  Solving for T, Initial residual = 0.00543464, Final residual = 5.24232e-19, No Iterations 1
pyrolysis min/max(T) = 338.24, 737.82

Pyrolysis: reactingOneDim
    Total gas mass produced  [kg] = 0.00025158
    Total solid mass lost    [kg] = -0.00025158
    Total pyrolysis gases  [kg/s] = 0.000582547
    Total heat release rate [J/s] = -912.922

ExecutionTime = 5.33 s  ClockTime = 5 s

Courant Number mean: 0.0595214 max: 2.75101
deltaT = 0.00947368
Time = 3

diagonal:  Solving for rho, Initial residual = 0, Final residual = 0, No Iterations 0
DILUPBiCG:  Solving for Ux, Initial residual = 0.0387181, Final residual = 1.36918e-08, No Iterations 3
DILUPBiCG:  Solving for Uz, Initial residual = 0.00674118, Final residual = 2.89799e-09, No Iterations 3
DILUPBiCG:  Solving for O2, Initial residual = 0.0055608, Final residual = 1.34739e-09, No Iterations 3
max of O2 = 0.23301
min of O2 = 0.000824157
DILUPBiCG:  Solving for H2O, Initial residual = 0.00564147, Final residual = 3.26964e-09, No Iterations 3
max of H2O = 0.0807743
min of H2O = 0
DILUPBiCG:  Solving for C3H8, Initial residual = 0.00596991, Final residual = 1.23104e-09, No Iterations 3
max of C3H8 = 0.898737
min of C3H8 = 0
DILUPBiCG:  Solving for CO2, Initial residual = 0.00564147, Final residual = 3.26964e-09, No Iterations 3
max of CO2 = 0.147994
min of CO2 = 0
max of N2 = 0.76699
min of N2 = 0
DILUPBiCG:  Solving for hs, Initial residual = 0.00565828, Final residual = 3.42763e-09, No Iterations 3
GAMG:  Solving for p_rgh, Initial residual = 0.0314107, Final residual = 0.000136931, No Iterations 3
diagonal:  Solving for rho, Initial residual = 0, Final residual = 0, No Iterations 0
time step continuity errors : sum local = 5.22851e-06, global = -6.20852e-07, cumulative = 0.0010308
GAMG:  Solving for p_rgh, Initial residual = 0.00300225, Final residual = 4.38583e-07, No Iterations 7
diagonal:  Solving for rho, Initial residual = 0, Final residual = 0, No Iterations 0
time step continuity errors : sum local = 1.68913e-08, global = 1.34396e-09, cumulative = 0.0010308
DILUPBiCG:  Solving for k, Initial residual = 0.00293228, Final residual = 1.84346e-10, No Iterations 3

Evolving reactingOneDim for region panelRegion
diagonal:  Solving for rho, Initial residual = 0, Final residual = 0, No Iterations 0
diagonal:  Solving for Yv, Initial residual = 0, Final residual = 0, No Iterations 0
DICPCG:  Solving for T, Initial residual = 0.00540266, Final residual = 6.1622e-19, No Iterations 1
pyrolysis min/max(T) = 338.557, 739.363

Pyrolysis: reactingOneDim
    Total gas mass produced  [kg] = 0.000257195
    Total solid mass lost    [kg] = -0.000257195
    Total pyrolysis gases  [kg/s] = 0.000592721
    Total heat release rate [J/s] = -928.866

ExecutionTime = 5.36 s  ClockTime = 5 s +

End

Finalising parallel run
