/*---------------------------------------------------------------------------*\
| =========                 |                                                 |
| \\      /  F ield         | OpenFOAM: The Open Source CFD Toolbox           |
|  \\    /   O peration     | Version:  1.7.x                                 |
|   \\  /    A nd           | Web:      www.OpenFOAM.com                      |
|    \\/     M anipulation  |                                                 |
\*---------------------------------------------------------------------------*/
Build  : 1.7.x-868d5097761f
Exec   : fireFoam
Date   : Jun 02 2011
Time   : 10:53:37
Host   : wangyUbuntu
PID    : 3896
Case   : /home/wangy/OpenFOAM/wangy-1.7.x/run/fireFoam/testBatteryFireFOAM/1DpyrolysisTest
nProcs : 1
SigFpe : Enabling floating point exception trapping (FOAM_SIGFPE).

// * * * * * * * * * * * * * * * * * * * * * * * * * * * * * * * * * * * * * //
Create time

Create mesh for time = 0


Reading g
Reading thermophysical properties

Selecting thermodynamics package hsPsiMixtureThermoNew<singleStepReactingMixture<gasThermoPhysics>>
Selecting chemistryReader foamChemistryReader
Fuel heat of combustion :5.00314e+07
Mole based specieStoichCoeffs: 5(-2 2 -1 1 7.52)
stoichiometric air-fuel ratio :17.1204
stoichiometric oxygen-fuel ratio :3.98918
Max products: 5(0 0.123944 0 0.151392 0.724664)
mass based specieStoichCoeffs: 5(-3.98918 2.2459 -1 2.74329 13.1312)
Reading field p_rgh

Reading field U

Reading/calculating face flux field phi

Creating turbulence model

Selecting turbulence model type LESModel
Selecting LES turbulence model oneEqEddy
--> FOAM Warning : 
    From function cubeRootVolDelta::calcDelta()
    in file cubeRootVolDelta/cubeRootVolDelta.C at line 52
    Case is 2D, LES is not strictly applicable

oneEqEddyCoeffs
{
    Prt             1;
    ce              1.048;
    ck              0.094;
}

Creating combustion model

Selecting combustion model infinitelyFastChemistry
stoichiometric mixture fraction is = 0.0551866
Creating field DpDt

Calculating field g.h

Selecting radiationModel P1
Selecting absorptionEmissionModel constantAbsorptionEmission
Selecting scatterModel constantScatter
Creating pyrolysis model

Selecting pyrolysisModel reactingOneDim
Selecting solidChemistryModel "ODESolidChemistryModel<constSolidThermoPhysics>gasThermoPhysics"
ODESolidChemistryModel: Number of solids = 2 and reactions = 1
Number of gases from pyrolysis = 1
Reaction 0
irreversibleSolidArrheniusReaction
    v = char +  gas
    Reaction order: 4.86
(7.83e+10 15274.6 400)
Selecting ODE solver SIBS

Constructing reacting cloud
Selecting DispersionModel none
Selecting DragModel SphereDrag
Selecting InjectionModel ConeInjection
    Constructing 2-D injection
Selecting pdfType RosinRammler
Selecting PatchInteractionModel StandardWallInteraction
Selecting PostProcessingModel none
Selecting U IntegrationScheme Euler
Selecting HeatTransferModel RanzMarshall
Selecting T IntegrationScheme Analytical
Selecting CompositionModel SinglePhaseMixture
Selecting PhaseChangeModel LiquidEvaporation
Courant Number mean: 0 max: 0

Starting time loop

Courant Number mean: 0 max: 0
faceSource patchPanel:
    total faces  = 1
    total area   = 1


faceSource patchPanelSolid:
    total faces  = 1
    total area   = 1


Time = 0.2

diagonal:  Solving for rho, Initial residual = 0, Final residual = 0, No Iterations 0
DILUPBiCG:  Solving for Ux, Initial residual = 1, Final residual = 0, No Iterations 1
DILUPBiCG:  Solving for Uz, Initial residual = 1, Final residual = 0, No Iterations 1
DILUPBiCG:  Solving for O2, Initial residual = 0.999955, Final residual = 0, No Iterations 1
max of O2 = 0.23301
min of O2 = 0.23301
DILUPBiCG:  Solving for H2O, Initial residual = 0, Final residual = 0, No Iterations 0
max of H2O = 0
min of H2O = 0
DILUPBiCG:  Solving for CH4, Initial residual = 0.99999, Final residual = 0, No Iterations 1
max of CH4 = 1.3275e-12
min of CH4 = 1.69611e-16
DILUPBiCG:  Solving for CO2, Initial residual = 0, Final residual = 0, No Iterations 0
max of CO2 = 0
min of CO2 = 0
max of N2 = 0.76699
min of N2 = 0
DICPCG:  Solving for G, Initial residual = 1, Final residual = 1.27181e-16, No Iterations 1
DILUPBiCG:  Solving for hs, Initial residual = 0.999999, Final residual = 0, No Iterations 1
GAMG:  Solving for p_rgh, Initial residual = 1, Final residual = 0, No Iterations 1
diagonal:  Solving for rho, Initial residual = 0, Final residual = 0, No Iterations 0
time step continuity errors : sum local = 9.01985e-14, global = -9.01985e-14, cumulative = -9.01985e-14
GAMG:  Solving for p_rgh, Initial residual = 1, Final residual = 0, No Iterations 1
diagonal:  Solving for rho, Initial residual = 0, Final residual = 0, No Iterations 0
time step continuity errors : sum local = 1.01986e-12, global = 1.01986e-12, cumulative = 9.29666e-13
DILUPBiCG:  Solving for k, Initial residual = 1, Final residual = 0, No Iterations 1

Evolving reactingOneDim for region panelRegion
diagonal:  Solving for rho, Initial residual = 0, Final residual = 0, No Iterations 0
diagonal:  Solving for Yv, Initial residual = 0, Final residual = 0, No Iterations 0
DICPCG:  Solving for T, Initial residual = 1, Final residual = 3.65616e-18, No Iterations 1
pyrolysis min/max(T) = 298.15, 416.178

Pyrolysis: reactingOneDim
    Total gas mass produced  [kg] = 0
    Total solid mass lost    [kg] = 0
    Total pyrolysis gases  [kg/s] = 0
    Total heat release rate [J/s] = 0

ExecutionTime = 0.04 s  ClockTime = 0 s

Courant Number mean: 0 max: 0
Time = 0.4

diagonal:  Solving for rho, Initial residual = 0, Final residual = 0, No Iterations 0
DILUPBiCG:  Solving for Ux, Initial residual = 1, Final residual = 0, No Iterations 1
DILUPBiCG:  Solving for Uz, Initial residual = 1, Final residual = 0, No Iterations 1
DILUPBiCG:  Solving for O2, Initial residual = 0.999985, Final residual = 0, No Iterations 1
max of O2 = 0.23301
min of O2 = 0.23301
DILUPBiCG:  Solving for H2O, Initial residual = 1, Final residual = 1.1139e-16, No Iterations 1
max of H2O = 0
min of H2O = -3.88195e-08
DILUPBiCG:  Solving for CH4, Initial residual = 0.99999, Final residual = 0, No Iterations 1
max of CH4 = 1.32663e-12
min of CH4 = 0
DILUPBiCG:  Solving for CO2, Initial residual = 1, Final residual = 0, No Iterations 1
max of CO2 = 0
min of CO2 = -5.74507e-08
max of N2 = 0.76699
min of N2 = 0
DICPCG:  Solving for G, Initial residual = 1, Final residual = 0, No Iterations 1
DILUPBiCG:  Solving for hs, Initial residual = 1, Final residual = 0, No Iterations 1
GAMG:  Solving for p_rgh, Initial residual = 1, Final residual = 0, No Iterations 1
diagonal:  Solving for rho, Initial residual = 0, Final residual = 0, No Iterations 0
time step continuity errors : sum local = 1.67593e-14, global = -1.67593e-14, cumulative = 9.12907e-13
GAMG:  Solving for p_rgh, Initial residual = 1, Final residual = 0, No Iterations 1
diagonal:  Solving for rho, Initial residual = 0, Final residual = 0, No Iterations 0
time step continuity errors : sum local = 1.08728e-12, global = -1.08728e-12, cumulative = -1.74375e-13
DILUPBiCG:  Solving for k, Initial residual = 1, Final residual = 0, No Iterations 1

Evolving reactingOneDim for region panelRegion
diagonal:  Solving for rho, Initial residual = 0, Final residual = 0, No Iterations 0
diagonal:  Solving for Yv, Initial residual = 0, Final residual = 0, No Iterations 0
DICPCG:  Solving for T, Initial residual = 0.225752, Final residual = 1.50788e-18, No Iterations 1
pyrolysis min/max(T) = 298.15, 424.132

Pyrolysis: reactingOneDim
    Total gas mass produced  [kg] = 0
    Total solid mass lost    [kg] = 0
    Total pyrolysis gases  [kg/s] = 0
    Total heat release rate [J/s] = 0

ExecutionTime = 0.04 s  ClockTime = 0 s

Courant Number mean: 0 max: 0
Time = 0.6

diagonal:  Solving for rho, Initial residual = 0, Final residual = 0, No Iterations 0
DILUPBiCG:  Solving for Ux, Initial residual = 1, Final residual = 0, No Iterations 1
DILUPBiCG:  Solving for Uz, Initial residual = 1, Final residual = 0, No Iterations 1
DILUPBiCG:  Solving for O2, Initial residual = 0.999991, Final residual = 0, No Iterations 1
max of O2 = 0.23301
min of O2 = 0.23301
DILUPBiCG:  Solving for H2O, Initial residual = 1, Final residual = 0, No Iterations 1
max of H2O = 0
min of H2O = -1.09826e-07
DILUPBiCG:  Solving for CH4, Initial residual = 0.999989, Final residual = 0, No Iterations 1
max of CH4 = 1.32481e-12
min of CH4 = 0
DILUPBiCG:  Solving for CO2, Initial residual = 1, Final residual = 0, No Iterations 1
max of CO2 = 0
min of CO2 = -1.6094e-07
max of N2 = 0.76699
min of N2 = 0
DICPCG:  Solving for G, Initial residual = 1, Final residual = 1.36706e-16, No Iterations 1
DILUPBiCG:  Solving for hs, Initial residual = 1, Final residual = 0, No Iterations 1
GAMG:  Solving for p_rgh, Initial residual = 1, Final residual = 0, No Iterations 1
diagonal:  Solving for rho, Initial residual = 0, Final residual = 0, No Iterations 0
time step continuity errors : sum local = 1.49987e-12, global = -1.49987e-12, cumulative = -1.67425e-12
GAMG:  Solving for p_rgh, Initial residual = 1, Final residual = 0, No Iterations 1
diagonal:  Solving for rho, Initial residual = 0, Final residual = 0, No Iterations 0
time step continuity errors : sum local = 4.24634e-13, global = -4.24634e-13, cumulative = -2.09888e-12
DILUPBiCG:  Solving for k, Initial residual = 1, Final residual = 0, No Iterations 1

Evolving reactingOneDim for region panelRegion
diagonal:  Solving for rho, Initial residual = 0, Final residual = 0, No Iterations 0
diagonal:  Solving for Yv, Initial residual = 0, Final residual = 0, No Iterations 0
DICPCG:  Solving for T, Initial residual = 0.12952, Final residual = 4.46556e-18, No Iterations 1
pyrolysis min/max(T) = 298.15, 431.799

Pyrolysis: reactingOneDim
    Total gas mass produced  [kg] = 0
    Total solid mass lost    [kg] = 0
    Total pyrolysis gases  [kg/s] = 0
    Total heat release rate [J/s] = 0

ExecutionTime = 0.04 s  ClockTime = 0 s

Courant Number mean: 0 max: 0
Time = 0.8

diagonal:  Solving for rho, Initial residual = 0, Final residual = 0, No Iterations 0
DILUPBiCG:  Solving for Ux, Initial residual = 1, Final residual = 0, No Iterations 1
DILUPBiCG:  Solving for Uz, Initial residual = 1, Final residual = 1.16254e-16, No Iterations 1
DILUPBiCG:  Solving for O2, Initial residual = 0.999991, Final residual = 0, No Iterations 1
max of O2 = 0.23301
min of O2 = 0.23301
DILUPBiCG:  Solving for H2O, Initial residual = 1, Final residual = 0, No Iterations 1
max of H2O = 0
min of H2O = -2.0325e-07
DILUPBiCG:  Solving for CH4, Initial residual = 0.999988, Final residual = 1.14684e-16, No Iterations 1
max of CH4 = 1.32309e-12
min of CH4 = 0
DILUPBiCG:  Solving for CO2, Initial residual = 1, Final residual = 1.18875e-16, No Iterations 1
max of CO2 = 0
min of CO2 = -2.94194e-07
max of N2 = 0.76699
min of N2 = 0
DICPCG:  Solving for G, Initial residual = 1, Final residual = 0, No Iterations 1
DILUPBiCG:  Solving for hs, Initial residual = 1, Final residual = 0, No Iterations 1
GAMG:  Solving for p_rgh, Initial residual = 1, Final residual = 0, No Iterations 1
diagonal:  Solving for rho, Initial residual = 0, Final residual = 0, No Iterations 0
time step continuity errors : sum local = 4.25203e-13, global = -4.25203e-13, cumulative = -2.52408e-12
GAMG:  Solving for p_rgh, Initial residual = 1, Final residual = 0, No Iterations 1
diagonal:  Solving for rho, Initial residual = 0, Final residual = 0, No Iterations 0
time step continuity errors : sum local = 6.53434e-13, global = -6.53434e-13, cumulative = -3.17752e-12
DILUPBiCG:  Solving for k, Initial residual = 1, Final residual = 0, No Iterations 1

Evolving reactingOneDim for region panelRegion
diagonal:  Solving for rho, Initial residual = 0, Final residual = 0, No Iterations 0
diagonal:  Solving for Yv, Initial residual = 0, Final residual = 0, No Iterations 0
DICPCG:  Solving for T, Initial residual = 0.0918834, Final residual = 1.16454e-18, No Iterations 1
pyrolysis min/max(T) = 298.15, 439.198

Pyrolysis: reactingOneDim
    Total gas mass produced  [kg] = 0
    Total solid mass lost    [kg] = 0
    Total pyrolysis gases  [kg/s] = 0
    Total heat release rate [J/s] = 0

ExecutionTime = 0.05 s  ClockTime = 0 s

Courant Number mean: 0 max: 0
Time = 1

diagonal:  Solving for rho, Initial residual = 0, Final residual = 0, No Iterations 0
DILUPBiCG:  Solving for Ux, Initial residual = 1, Final residual = 0, No Iterations 1
DILUPBiCG:  Solving for Uz, Initial residual = 1, Final residual = 0, No Iterations 1
DILUPBiCG:  Solving for O2, Initial residual = 0.999994, Final residual = 0, No Iterations 1
max of O2 = 0.23301
min of O2 = 0.23301
DILUPBiCG:  Solving for H2O, Initial residual = 1, Final residual = 1.49507e-16, No Iterations 1
max of H2O = 0
min of H2O = -3.08552e-07
DILUPBiCG:  Solving for CH4, Initial residual = 0.999987, Final residual = 0, No Iterations 1
max of CH4 = 1.32146e-12
min of CH4 = 0
DILUPBiCG:  Solving for CO2, Initial residual = 1, Final residual = 0, No Iterations 1
max of CO2 = 0
min of CO2 = -4.40399e-07
max of N2 = 0.76699
min of N2 = 0
DICPCG:  Solving for G, Initial residual = 1, Final residual = 1.25757e-16, No Iterations 1
DILUPBiCG:  Solving for hs, Initial residual = 1, Final residual = 0, No Iterations 1
GAMG:  Solving for p_rgh, Initial residual = 1, Final residual = 0, No Iterations 1
diagonal:  Solving for rho, Initial residual = 0, Final residual = 0, No Iterations 0
time step continuity errors : sum local = 6.76606e-13, global = -6.76606e-13, cumulative = -3.85412e-12
GAMG:  Solving for p_rgh, Initial residual = 1, Final residual = 0, No Iterations 1
diagonal:  Solving for rho, Initial residual = 0, Final residual = 0, No Iterations 0
time step continuity errors : sum local = 4.86975e-13, global = -4.86975e-13, cumulative = -4.3411e-12
DILUPBiCG:  Solving for k, Initial residual = 1, Final residual = 0, No Iterations 1

Evolving reactingOneDim for region panelRegion
diagonal:  Solving for rho, Initial residual = 0, Final residual = 0, No Iterations 0
diagonal:  Solving for Yv, Initial residual = 0, Final residual = 0, No Iterations 0
DICPCG:  Solving for T, Initial residual = 0.071806, Final residual = 1.74526e-18, No Iterations 1
pyrolysis min/max(T) = 298.15, 446.346

Pyrolysis: reactingOneDim
    Total gas mass produced  [kg] = 0
    Total solid mass lost    [kg] = 0
    Total pyrolysis gases  [kg/s] = 0
    Total heat release rate [J/s] = 0

ExecutionTime = 0.05 s  ClockTime = 0 s

Courant Number mean: 0 max: 0
Time = 1.2

diagonal:  Solving for rho, Initial residual = 0, Final residual = 0, No Iterations 0
DILUPBiCG:  Solving for Ux, Initial residual = 1, Final residual = 1.31095e-16, No Iterations 1
DILUPBiCG:  Solving for Uz, Initial residual = 1, Final residual = 0, No Iterations 1
DILUPBiCG:  Solving for O2, Initial residual = 0.999994, Final residual = 0, No Iterations 1
max of O2 = 0.23301
min of O2 = 0.23301
DILUPBiCG:  Solving for H2O, Initial residual = 1, Final residual = 0, No Iterations 1
max of H2O = 0
min of H2O = -4.16364e-07
DILUPBiCG:  Solving for CH4, Initial residual = 0.999985, Final residual = 0, No Iterations 1
max of CH4 = 1.31991e-12
min of CH4 = 0
DILUPBiCG:  Solving for CO2, Initial residual = 1, Final residual = 0, No Iterations 1
max of CO2 = 0
min of CO2 = -5.85467e-07
max of N2 = 0.766991
min of N2 = 0
DICPCG:  Solving for G, Initial residual = 1, Final residual = 1.21224e-16, No Iterations 1
DILUPBiCG:  Solving for hs, Initial residual = 1, Final residual = 1.20853e-16, No Iterations 1
GAMG:  Solving for p_rgh, Initial residual = 1, Final residual = 0, No Iterations 1
diagonal:  Solving for rho, Initial residual = 0, Final residual = 0, No Iterations 0
time step continuity errors : sum local = 1.07547e-12, global = -1.07547e-12, cumulative = -5.41657e-12
GAMG:  Solving for p_rgh, Initial residual = 1, Final residual = 0, No Iterations 1
diagonal:  Solving for rho, Initial residual = 0, Final residual = 0, No Iterations 0
time step continuity errors : sum local = 4.64385e-13, global = -4.64385e-13, cumulative = -5.88095e-12
DILUPBiCG:  Solving for k, Initial residual = 1, Final residual = 0, No Iterations 1

Evolving reactingOneDim for region panelRegion
diagonal:  Solving for rho, Initial residual = 0, Final residual = 0, No Iterations 0
diagonal:  Solving for Yv, Initial residual = 0, Final residual = 0, No Iterations 0
DICPCG:  Solving for T, Initial residual = 0.0593182, Final residual = 1.67984e-19, No Iterations 1
pyrolysis min/max(T) = 298.15, 453.26

Pyrolysis: reactingOneDim
    Total gas mass produced  [kg] = 0
    Total solid mass lost    [kg] = 0
    Total pyrolysis gases  [kg/s] = 0
    Total heat release rate [J/s] = 0

ExecutionTime = 0.06 s  ClockTime = 0 s

Courant Number mean: 0 max: 0
Time = 1.4

diagonal:  Solving for rho, Initial residual = 0, Final residual = 0, No Iterations 0
DILUPBiCG:  Solving for Ux, Initial residual = 1, Final residual = 1.38532e-16, No Iterations 1
DILUPBiCG:  Solving for Uz, Initial residual = 1, Final residual = 1.23229e-16, No Iterations 1
DILUPBiCG:  Solving for O2, Initial residual = 0.999995, Final residual = 0, No Iterations 1
max of O2 = 0.23301
min of O2 = 0.23301
DILUPBiCG:  Solving for H2O, Initial residual = 1, Final residual = 1.45973e-16, No Iterations 1
max of H2O = 0
min of H2O = -5.19582e-07
DILUPBiCG:  Solving for CH4, Initial residual = 0.999982, Final residual = 0, No Iterations 1
max of CH4 = 1.31844e-12
min of CH4 = 0
DILUPBiCG:  Solving for CO2, Initial residual = 1, Final residual = 0, No Iterations 1
max of CO2 = 0
min of CO2 = -7.19576e-07
max of N2 = 0.766991
min of N2 = 0
DICPCG:  Solving for G, Initial residual = 1, Final residual = 1.17185e-16, No Iterations 1
DILUPBiCG:  Solving for hs, Initial residual = 1, Final residual = 0, No Iterations 1
GAMG:  Solving for p_rgh, Initial residual = 1, Final residual = 0, No Iterations 1
diagonal:  Solving for rho, Initial residual = 0, Final residual = 0, No Iterations 0
time step continuity errors : sum local = 6.57233e-13, global = -6.57233e-13, cumulative = -6.53819e-12
GAMG:  Solving for p_rgh, Initial residual = 1, Final residual = 0, No Iterations 1
diagonal:  Solving for rho, Initial residual = 0, Final residual = 0, No Iterations 0
time step continuity errors : sum local = 6.04127e-13, global = -6.04127e-13, cumulative = -7.14231e-12
DILUPBiCG:  Solving for k, Initial residual = 1, Final residual = 0, No Iterations 1

Evolving reactingOneDim for region panelRegion
diagonal:  Solving for rho, Initial residual = 0, Final residual = 0, No Iterations 0
diagonal:  Solving for Yv, Initial residual = 0, Final residual = 0, No Iterations 0
DICPCG:  Solving for T, Initial residual = 0.0507966, Final residual = 3.23945e-19, No Iterations 1
pyrolysis min/max(T) = 298.15, 459.954

Pyrolysis: reactingOneDim
    Total gas mass produced  [kg] = 0
    Total solid mass lost    [kg] = 0
    Total pyrolysis gases  [kg/s] = 0
    Total heat release rate [J/s] = 0

ExecutionTime = 0.06 s  ClockTime = 0 s

Courant Number mean: 0 max: 0
Time = 1.6

diagonal:  Solving for rho, Initial residual = 0, Final residual = 0, No Iterations 0
DILUPBiCG:  Solving for Ux, Initial residual = 1, Final residual = 0, No Iterations 1
DILUPBiCG:  Solving for Uz, Initial residual = 1, Final residual = 0, No Iterations 1
DILUPBiCG:  Solving for O2, Initial residual = 0.999995, Final residual = 0, No Iterations 1
max of O2 = 0.23301
min of O2 = 0.23301
DILUPBiCG:  Solving for H2O, Initial residual = 1, Final residual = 0, No Iterations 1
max of H2O = 0
min of H2O = -6.13591e-07
DILUPBiCG:  Solving for CH4, Initial residual = 0.999979, Final residual = 0, No Iterations 1
max of CH4 = 1.31703e-12
min of CH4 = 0
DILUPBiCG:  Solving for CO2, Initial residual = 1, Final residual = 0, No Iterations 1
max of CO2 = 0
min of CO2 = -8.37166e-07
max of N2 = 0.766991
min of N2 = 0
DICPCG:  Solving for G, Initial residual = 1, Final residual = 1.13564e-16, No Iterations 1
DILUPBiCG:  Solving for hs, Initial residual = 1, Final residual = 0, No Iterations 1
GAMG:  Solving for p_rgh, Initial residual = 1, Final residual = 0, No Iterations 1
diagonal:  Solving for rho, Initial residual = 0, Final residual = 0, No Iterations 0
time step continuity errors : sum local = 8.3446e-13, global = 8.3446e-13, cumulative = -6.30785e-12
GAMG:  Solving for p_rgh, Initial residual = 1, Final residual = 0, No Iterations 1
diagonal:  Solving for rho, Initial residual = 0, Final residual = 0, No Iterations 0
time step continuity errors : sum local = 1.08022e-12, global = 1.08022e-12, cumulative = -5.22763e-12
DILUPBiCG:  Solving for k, Initial residual = 1, Final residual = 0, No Iterations 1

Evolving reactingOneDim for region panelRegion
diagonal:  Solving for rho, Initial residual = 0, Final residual = 0, No Iterations 0
diagonal:  Solving for Yv, Initial residual = 0, Final residual = 0, No Iterations 0
DICPCG:  Solving for T, Initial residual = 0.0446075, Final residual = 1.0267e-18, No Iterations 1
pyrolysis min/max(T) = 298.15, 466.442

Pyrolysis: reactingOneDim
    Total gas mass produced  [kg] = 0
    Total solid mass lost    [kg] = 0
    Total pyrolysis gases  [kg/s] = 0
    Total heat release rate [J/s] = 0

ExecutionTime = 0.06 s  ClockTime = 0 s

Courant Number mean: 0 max: 0
Time = 1.8

diagonal:  Solving for rho, Initial residual = 0, Final residual = 0, No Iterations 0
DILUPBiCG:  Solving for Ux, Initial residual = 1, Final residual = 1.22854e-16, No Iterations 1
DILUPBiCG:  Solving for Uz, Initial residual = 1, Final residual = 0, No Iterations 1
DILUPBiCG:  Solving for O2, Initial residual = 0.999996, Final residual = 0, No Iterations 1
max of O2 = 0.23301
min of O2 = 0.23301
DILUPBiCG:  Solving for H2O, Initial residual = 1, Final residual = 0, No Iterations 1
max of H2O = 0
min of H2O = -6.96103e-07
DILUPBiCG:  Solving for CH4, Initial residual = 0.999975, Final residual = 0, No Iterations 1
max of CH4 = 1.31568e-12
min of CH4 = 0
DILUPBiCG:  Solving for CO2, Initial residual = 1, Final residual = 1.41646e-16, No Iterations 1
max of CO2 = 0
min of CO2 = -9.36297e-07
max of N2 = 0.766991
min of N2 = 0
DICPCG:  Solving for G, Initial residual = 1, Final residual = 0, No Iterations 1
DILUPBiCG:  Solving for hs, Initial residual = 1, Final residual = 0, No Iterations 1
GAMG:  Solving for p_rgh, Initial residual = 1, Final residual = 0, No Iterations 1
diagonal:  Solving for rho, Initial residual = 0, Final residual = 0, No Iterations 0
time step continuity errors : sum local = 3.73455e-13, global = 3.73455e-13, cumulative = -4.85418e-12
GAMG:  Solving for p_rgh, Initial residual = 1, Final residual = 0, No Iterations 1
diagonal:  Solving for rho, Initial residual = 0, Final residual = 0, No Iterations 0
time step continuity errors : sum local = 1.10737e-12, global = 1.10737e-12, cumulative = -3.74681e-12
DILUPBiCG:  Solving for k, Initial residual = 1, Final residual = 0, No Iterations 1

Evolving reactingOneDim for region panelRegion
diagonal:  Solving for rho, Initial residual = 0, Final residual = 0, No Iterations 0
diagonal:  Solving for Yv, Initial residual = 0, Final residual = 0, No Iterations 0
DICPCG:  Solving for T, Initial residual = 0.0398979, Final residual = 7.48694e-18, No Iterations 1
pyrolysis min/max(T) = 298.15, 472.734

Pyrolysis: reactingOneDim
    Total gas mass produced  [kg] = 0
    Total solid mass lost    [kg] = 0
    Total pyrolysis gases  [kg/s] = 0
    Total heat release rate [J/s] = 0

ExecutionTime = 0.07 s  ClockTime = 0 s

Courant Number mean: 0 max: 0
Time = 2

diagonal:  Solving for rho, Initial residual = 0, Final residual = 0, No Iterations 0
DILUPBiCG:  Solving for Ux, Initial residual = 1, Final residual = 0, No Iterations 1
DILUPBiCG:  Solving for Uz, Initial residual = 1, Final residual = 0, No Iterations 1
DILUPBiCG:  Solving for O2, Initial residual = 0.999996, Final residual = 0, No Iterations 1
max of O2 = 0.23301
min of O2 = 0.23301
DILUPBiCG:  Solving for H2O, Initial residual = 1, Final residual = 0, No Iterations 1
max of H2O = 0
min of H2O = -7.66572e-07
DILUPBiCG:  Solving for CH4, Initial residual = 0.999972, Final residual = 1.35646e-16, No Iterations 1
max of CH4 = 1.31441e-12
min of CH4 = 0
DILUPBiCG:  Solving for CO2, Initial residual = 1, Final residual = 0, No Iterations 1
max of CO2 = 0
min of CO2 = -1.01746e-06
max of N2 = 0.766992
min of N2 = 0
DICPCG:  Solving for G, Initial residual = 1, Final residual = 0, No Iterations 1
DILUPBiCG:  Solving for hs, Initial residual = 1, Final residual = 0, No Iterations 1
GAMG:  Solving for p_rgh, Initial residual = 1, Final residual = 0, No Iterations 1
diagonal:  Solving for rho, Initial residual = 0, Final residual = 0, No Iterations 0
time step continuity errors : sum local = 1.26824e-12, global = 1.26824e-12, cumulative = -2.47857e-12
GAMG:  Solving for p_rgh, Initial residual = 1, Final residual = 0, No Iterations 1
diagonal:  Solving for rho, Initial residual = 0, Final residual = 0, No Iterations 0
time step continuity errors : sum local = 1.09478e-12, global = 1.09478e-12, cumulative = -1.38379e-12
DILUPBiCG:  Solving for k, Initial residual = 1, Final residual = 0, No Iterations 1

Evolving reactingOneDim for region panelRegion
diagonal:  Solving for rho, Initial residual = 0, Final residual = 0, No Iterations 0
diagonal:  Solving for Yv, Initial residual = 0, Final residual = 0, No Iterations 0
DICPCG:  Solving for T, Initial residual = 0.0359784, Final residual = 5.15204e-18, No Iterations 1
pyrolysis min/max(T) = 298.15, 478.844

Pyrolysis: reactingOneDim
    Total gas mass produced  [kg] = 0
    Total solid mass lost    [kg] = 0
    Total pyrolysis gases  [kg/s] = 0
    Total heat release rate [J/s] = 0

ExecutionTime = 0.08 s  ClockTime = 0 s

Courant Number mean: 0 max: 0
Time = 2.2

diagonal:  Solving for rho, Initial residual = 0, Final residual = 0, No Iterations 0
DILUPBiCG:  Solving for Ux, Initial residual = 1, Final residual = 1.32907e-16, No Iterations 1
DILUPBiCG:  Solving for Uz, Initial residual = 1, Final residual = 0, No Iterations 1
DILUPBiCG:  Solving for O2, Initial residual = 0.999997, Final residual = 0, No Iterations 1
max of O2 = 0.23301
min of O2 = 0.23301
DILUPBiCG:  Solving for H2O, Initial residual = 1, Final residual = 1.20945e-16, No Iterations 1
max of H2O = -8.2575e-07
min of H2O = -8.2575e-07
DILUPBiCG:  Solving for CH4, Initial residual = 0.99997, Final residual = 0, No Iterations 1
max of CH4 = 1.3132e-12
min of CH4 = 1.18533e-15
DILUPBiCG:  Solving for CO2, Initial residual = 1, Final residual = 0, No Iterations 1
max of CO2 = -1.0827e-06
min of CO2 = -1.0827e-06
max of N2 = 0.766992
min of N2 = 0
DICPCG:  Solving for G, Initial residual = 1, Final residual = 0, No Iterations 1
DILUPBiCG:  Solving for hs, Initial residual = 1, Final residual = 1.26364e-16, No Iterations 1
GAMG:  Solving for p_rgh, Initial residual = 1, Final residual = 0, No Iterations 1
diagonal:  Solving for rho, Initial residual = 0, Final residual = 0, No Iterations 0
time step continuity errors : sum local = 1.03888e-12, global = 1.03888e-12, cumulative = -3.44905e-13
GAMG:  Solving for p_rgh, Initial residual = 1, Final residual = 0, No Iterations 1
diagonal:  Solving for rho, Initial residual = 0, Final residual = 0, No Iterations 0
time step continuity errors : sum local = 1.03041e-12, global = 1.03041e-12, cumulative = 6.85501e-13
DILUPBiCG:  Solving for k, Initial residual = 1, Final residual = 0, No Iterations 1

Evolving reactingOneDim for region panelRegion
diagonal:  Solving for rho, Initial residual = 0, Final residual = 0, No Iterations 0
diagonal:  Solving for Yv, Initial residual = 0, Final residual = 0, No Iterations 0
DICPCG:  Solving for T, Initial residual = 0.0328174, Final residual = 1.51867e-18, No Iterations 1
pyrolysis min/max(T) = 298.15, 484.78

Pyrolysis: reactingOneDim
    Total gas mass produced  [kg] = 0
    Total solid mass lost    [kg] = 0
    Total pyrolysis gases  [kg/s] = 0
    Total heat release rate [J/s] = 0

ExecutionTime = 0.08 s  ClockTime = 0 s

Courant Number mean: 0 max: 0
Time = 2.4

diagonal:  Solving for rho, Initial residual = 0, Final residual = 0, No Iterations 0
DILUPBiCG:  Solving for Ux, Initial residual = 1, Final residual = 0, No Iterations 1
DILUPBiCG:  Solving for Uz, Initial residual = 1, Final residual = 0, No Iterations 1
DILUPBiCG:  Solving for O2, Initial residual = 0.999997, Final residual = 0, No Iterations 1
max of O2 = 0.23301
min of O2 = 0.23301
DILUPBiCG:  Solving for H2O, Initial residual = 1, Final residual = 0, No Iterations 1
max of H2O = 0
min of H2O = -8.74491e-07
DILUPBiCG:  Solving for CH4, Initial residual = 0.999967, Final residual = 0, No Iterations 1
max of CH4 = 1.31204e-12
min of CH4 = 0
DILUPBiCG:  Solving for CO2, Initial residual = 1, Final residual = 1.32026e-16, No Iterations 1
max of CO2 = 0
min of CO2 = -1.13403e-06
max of N2 = 0.766992
min of N2 = 0
DICPCG:  Solving for G, Initial residual = 1, Final residual = 0, No Iterations 1
DILUPBiCG:  Solving for hs, Initial residual = 1, Final residual = 0, No Iterations 1
GAMG:  Solving for p_rgh, Initial residual = 1, Final residual = 0, No Iterations 1
diagonal:  Solving for rho, Initial residual = 0, Final residual = 0, No Iterations 0
time step continuity errors : sum local = 8.70724e-13, global = 8.70724e-13, cumulative = 1.55622e-12
GAMG:  Solving for p_rgh, Initial residual = 1, Final residual = 0, No Iterations 1
diagonal:  Solving for rho, Initial residual = 0, Final residual = 0, No Iterations 0
time step continuity errors : sum local = 9.60565e-14, global = 9.60565e-14, cumulative = 1.65228e-12
DILUPBiCG:  Solving for k, Initial residual = 1, Final residual = 0, No Iterations 1

Evolving reactingOneDim for region panelRegion
diagonal:  Solving for rho, Initial residual = 0, Final residual = 0, No Iterations 0
diagonal:  Solving for Yv, Initial residual = 0, Final residual = 0, No Iterations 0
DICPCG:  Solving for T, Initial residual = 0.0300958, Final residual = 7.51278e-22, No Iterations 1
pyrolysis min/max(T) = 298.15, 490.554

Pyrolysis: reactingOneDim
    Total gas mass produced  [kg] = 0
    Total solid mass lost    [kg] = 0
    Total pyrolysis gases  [kg/s] = 0
    Total heat release rate [J/s] = 0

ExecutionTime = 0.08 s  ClockTime = 0 s

Courant Number mean: 0 max: 0
Time = 2.6

diagonal:  Solving for rho, Initial residual = 0, Final residual = 0, No Iterations 0
DILUPBiCG:  Solving for Ux, Initial residual = 1, Final residual = 0, No Iterations 1
DILUPBiCG:  Solving for Uz, Initial residual = 1, Final residual = 0, No Iterations 1
DILUPBiCG:  Solving for O2, Initial residual = 0.999997, Final residual = 0, No Iterations 1
max of O2 = 0.23301
min of O2 = 0.23301
DILUPBiCG:  Solving for H2O, Initial residual = 1, Final residual = 0, No Iterations 1
max of H2O = 0
min of H2O = -9.14127e-07
DILUPBiCG:  Solving for CH4, Initial residual = 0.999963, Final residual = 0, No Iterations 1
max of CH4 = 1.31094e-12
min of CH4 = 0
DILUPBiCG:  Solving for CO2, Initial residual = 1, Final residual = 0, No Iterations 1
max of CO2 = 0
min of CO2 = -1.17385e-06
max of N2 = 0.766992
min of N2 = 0
DICPCG:  Solving for G, Initial residual = 1, Final residual = 0, No Iterations 1
DILUPBiCG:  Solving for hs, Initial residual = 1, Final residual = 0, No Iterations 1
GAMG:  Solving for p_rgh, Initial residual = 1, Final residual = 0, No Iterations 1
diagonal:  Solving for rho, Initial residual = 0, Final residual = 0, No Iterations 0
time step continuity errors : sum local = 1.39212e-12, global = -1.39212e-12, cumulative = 2.60164e-13
GAMG:  Solving for p_rgh, Initial residual = 1, Final residual = 0, No Iterations 1
diagonal:  Solving for rho, Initial residual = 0, Final residual = 0, No Iterations 0
time step continuity errors : sum local = 6.99731e-13, global = 6.99731e-13, cumulative = 9.59895e-13
DILUPBiCG:  Solving for k, Initial residual = 1, Final residual = 0, No Iterations 1

Evolving reactingOneDim for region panelRegion
diagonal:  Solving for rho, Initial residual = 0, Final residual = 0, No Iterations 0
diagonal:  Solving for Yv, Initial residual = 0, Final residual = 0, No Iterations 0
DICPCG:  Solving for T, Initial residual = 0.0277565, Final residual = 3.79872e-18, No Iterations 1
pyrolysis min/max(T) = 298.15, 496.173

Pyrolysis: reactingOneDim
    Total gas mass produced  [kg] = 0
    Total solid mass lost    [kg] = 0
    Total pyrolysis gases  [kg/s] = 0
    Total heat release rate [J/s] = 0

ExecutionTime = 0.09 s  ClockTime = 0 s

Courant Number mean: 0 max: 0
Time = 2.8

diagonal:  Solving for rho, Initial residual = 0, Final residual = 0, No Iterations 0
DILUPBiCG:  Solving for Ux, Initial residual = 1, Final residual = 1.47633e-16, No Iterations 1
DILUPBiCG:  Solving for Uz, Initial residual = 1, Final residual = 1.34042e-16, No Iterations 1
DILUPBiCG:  Solving for O2, Initial residual = 0.999997, Final residual = 0, No Iterations 1
max of O2 = 0.23301
min of O2 = 0.23301
DILUPBiCG:  Solving for H2O, Initial residual = 1, Final residual = 0, No Iterations 1
max of H2O = -9.46143e-07
min of H2O = -9.46143e-07
DILUPBiCG:  Solving for CH4, Initial residual = 0.99996, Final residual = 0, No Iterations 1
max of CH4 = 1.30989e-12
min of CH4 = 1.31211e-15
DILUPBiCG:  Solving for CO2, Initial residual = 1, Final residual = 0, No Iterations 1
max of CO2 = -1.20454e-06
min of CO2 = -1.20454e-06
max of N2 = 0.766992
min of N2 = 0
DICPCG:  Solving for G, Initial residual = 1, Final residual = 0, No Iterations 1
DILUPBiCG:  Solving for hs, Initial residual = 1, Final residual = 0, No Iterations 1
GAMG:  Solving for p_rgh, Initial residual = 1, Final residual = 0, No Iterations 1
diagonal:  Solving for rho, Initial residual = 0, Final residual = 0, No Iterations 0
time step continuity errors : sum local = 3.84821e-13, global = 3.84821e-13, cumulative = 1.34472e-12
GAMG:  Solving for p_rgh, Initial residual = 1, Final residual = 0, No Iterations 1
diagonal:  Solving for rho, Initial residual = 0, Final residual = 0, No Iterations 0
time step continuity errors : sum local = 9.23909e-13, global = 9.23909e-13, cumulative = 2.26862e-12
DILUPBiCG:  Solving for k, Initial residual = 1, Final residual = 0, No Iterations 1

Evolving reactingOneDim for region panelRegion
diagonal:  Solving for rho, Initial residual = 0, Final residual = 0, No Iterations 0
diagonal:  Solving for Yv, Initial residual = 0, Final residual = 0, No Iterations 0
DICPCG:  Solving for T, Initial residual = 0.0257723, Final residual = 2.97381e-18, No Iterations 1
pyrolysis min/max(T) = 298.15, 501.646

Pyrolysis: reactingOneDim
    Total gas mass produced  [kg] = 0
    Total solid mass lost    [kg] = 0
    Total pyrolysis gases  [kg/s] = 0
    Total heat release rate [J/s] = 0

ExecutionTime = 0.09 s  ClockTime = 0 s

Courant Number mean: 0 max: 0
Time = 3

diagonal:  Solving for rho, Initial residual = 0, Final residual = 0, No Iterations 0
DILUPBiCG:  Solving for Ux, Initial residual = 1, Final residual = 0, No Iterations 1
DILUPBiCG:  Solving for Uz, Initial residual = 1, Final residual = 0, No Iterations 1
DILUPBiCG:  Solving for O2, Initial residual = 0.999997, Final residual = 0, No Iterations 1
max of O2 = 0.23301
min of O2 = 0.23301
DILUPBiCG:  Solving for H2O, Initial residual = 1, Final residual = 0, No Iterations 1
max of H2O = -9.71618e-07
min of H2O = -9.71618e-07
DILUPBiCG:  Solving for CH4, Initial residual = 0.999956, Final residual = 0, No Iterations 1
max of CH4 = 1.30889e-12
min of CH4 = 1.34707e-15
DILUPBiCG:  Solving for CO2, Initial residual = 1, Final residual = 0, No Iterations 1
max of CO2 = -1.22779e-06
min of CO2 = -1.22779e-06
max of N2 = 0.766992
min of N2 = 0
DICPCG:  Solving for G, Initial residual = 1, Final residual = 0, No Iterations 1
DILUPBiCG:  Solving for hs, Initial residual = 1, Final residual = 0, No Iterations 1
GAMG:  Solving for p_rgh, Initial residual = 1, Final residual = 0, No Iterations 1
diagonal:  Solving for rho, Initial residual = 0, Final residual = 0, No Iterations 0
time step continuity errors : sum local = 1.01154e-12, global = -1.01154e-12, cumulative = 1.25708e-12
GAMG:  Solving for p_rgh, Initial residual = 1, Final residual = 0, No Iterations 1
diagonal:  Solving for rho, Initial residual = 0, Final residual = 0, No Iterations 0
time step continuity errors : sum local = 6.27833e-13, global = -6.27833e-13, cumulative = 6.29252e-13
DILUPBiCG:  Solving for k, Initial residual = 1, Final residual = 0, No Iterations 1

Evolving reactingOneDim for region panelRegion
diagonal:  Solving for rho, Initial residual = 0, Final residual = 0, No Iterations 0
diagonal:  Solving for Yv, Initial residual = 0, Final residual = 0, No Iterations 0
DICPCG:  Solving for T, Initial residual = 0.0240684, Final residual = 3.91257e-18, No Iterations 1
pyrolysis min/max(T) = 298.15, 506.98

Pyrolysis: reactingOneDim
    Total gas mass produced  [kg] = 0
    Total solid mass lost    [kg] = 0
    Total pyrolysis gases  [kg/s] = 0
    Total heat release rate [J/s] = 0

ExecutionTime = 0.1 s  ClockTime = 0 s

Courant Number mean: 0 max: 0
Time = 3.2

diagonal:  Solving for rho, Initial residual = 0, Final residual = 0, No Iterations 0
DILUPBiCG:  Solving for Ux, Initial residual = 1, Final residual = 0, No Iterations 1
DILUPBiCG:  Solving for Uz, Initial residual = 1, Final residual = 0, No Iterations 1
DILUPBiCG:  Solving for O2, Initial residual = 0.999997, Final residual = 0, No Iterations 1
max of O2 = 0.23301
min of O2 = 0.23301
DILUPBiCG:  Solving for H2O, Initial residual = 1, Final residual = 0, No Iterations 1
max of H2O = -9.91697e-07
min of H2O = -9.91697e-07
DILUPBiCG:  Solving for CH4, Initial residual = 0.999951, Final residual = 1.19614e-16, No Iterations 1
max of CH4 = 1.30793e-12
min of CH4 = 1.37886e-15
DILUPBiCG:  Solving for CO2, Initial residual = 1, Final residual = 0, No Iterations 1
max of CO2 = -1.24522e-06
min of CO2 = -1.24522e-06
max of N2 = 0.766992
min of N2 = 0
DICPCG:  Solving for G, Initial residual = 1, Final residual = 0, No Iterations 1
DILUPBiCG:  Solving for hs, Initial residual = 1, Final residual = 0, No Iterations 1
GAMG:  Solving for p_rgh, Initial residual = 1, Final residual = 0, No Iterations 1
diagonal:  Solving for rho, Initial residual = 0, Final residual = 0, No Iterations 0
time step continuity errors : sum local = 5.90186e-13, global = -5.90186e-13, cumulative = 3.90663e-14
GAMG:  Solving for p_rgh, Initial residual = 1, Final residual = 0, No Iterations 1
diagonal:  Solving for rho, Initial residual = 0, Final residual = 0, No Iterations 0
time step continuity errors : sum local = 2.74466e-13, global = 2.74466e-13, cumulative = 3.13532e-13
DILUPBiCG:  Solving for k, Initial residual = 1, Final residual = 0, No Iterations 1

Evolving reactingOneDim for region panelRegion
diagonal:  Solving for rho, Initial residual = 0, Final residual = 0, No Iterations 0
diagonal:  Solving for Yv, Initial residual = 0, Final residual = 0, No Iterations 0
DICPCG:  Solving for T, Initial residual = 0.0225897, Final residual = 2.66034e-19, No Iterations 1
pyrolysis min/max(T) = 298.15, 512.182

Pyrolysis: reactingOneDim
    Total gas mass produced  [kg] = 0
    Total solid mass lost    [kg] = 0
    Total pyrolysis gases  [kg/s] = 0
    Total heat release rate [J/s] = 0

ExecutionTime = 0.1 s  ClockTime = 0 s

Courant Number mean: 0 max: 0
Time = 3.4

diagonal:  Solving for rho, Initial residual = 0, Final residual = 0, No Iterations 0
DILUPBiCG:  Solving for Ux, Initial residual = 1, Final residual = 0, No Iterations 1
DILUPBiCG:  Solving for Uz, Initial residual = 1, Final residual = 1.38189e-16, No Iterations 1
DILUPBiCG:  Solving for O2, Initial residual = 0.999997, Final residual = 0, No Iterations 1
max of O2 = 0.23301
min of O2 = 0.23301
DILUPBiCG:  Solving for H2O, Initial residual = 1, Final residual = 0, No Iterations 1
max of H2O = -1.00739e-06
min of H2O = -1.00739e-06
DILUPBiCG:  Solving for CH4, Initial residual = 0.999947, Final residual = 0, No Iterations 1
max of CH4 = 1.30702e-12
min of CH4 = 1.40776e-15
DILUPBiCG:  Solving for CO2, Initial residual = 1, Final residual = 0, No Iterations 1
max of CO2 = -1.25817e-06
min of CO2 = -1.25817e-06
max of N2 = 0.766992
min of N2 = 0
DICPCG:  Solving for G, Initial residual = 1, Final residual = 0, No Iterations 1
DILUPBiCG:  Solving for hs, Initial residual = 1, Final residual = 0, No Iterations 1
GAMG:  Solving for p_rgh, Initial residual = 1, Final residual = 0, No Iterations 1
diagonal:  Solving for rho, Initial residual = 0, Final residual = 0, No Iterations 0
time step continuity errors : sum local = 8.87488e-13, global = 8.87488e-13, cumulative = 1.20102e-12
GAMG:  Solving for p_rgh, Initial residual = 1, Final residual = 0, No Iterations 1
diagonal:  Solving for rho, Initial residual = 0, Final residual = 0, No Iterations 0
time step continuity errors : sum local = 8.81271e-13, global = -8.81271e-13, cumulative = 3.19749e-13
DILUPBiCG:  Solving for k, Initial residual = 1, Final residual = 0, No Iterations 1

Evolving reactingOneDim for region panelRegion
diagonal:  Solving for rho, Initial residual = 0, Final residual = 0, No Iterations 0
diagonal:  Solving for Yv, Initial residual = 0, Final residual = 0, No Iterations 0
DICPCG:  Solving for T, Initial residual = 0.0212916, Final residual = 3.95977e-18, No Iterations 1
pyrolysis min/max(T) = 298.15, 517.258

Pyrolysis: reactingOneDim
    Total gas mass produced  [kg] = 1.8533e-07
    Total solid mass lost    [kg] = -1.8533e-07
    Total pyrolysis gases  [kg/s] = 9.26648e-07
    Total heat release rate [J/s] = -1.45217

ExecutionTime = 0.1 s  ClockTime = 0 s

Courant Number mean: 0 max: 0
Time = 3.6

diagonal:  Solving for rho, Initial residual = 0, Final residual = 0, No Iterations 0
DILUPBiCG:  Solving for Ux, Initial residual = 1, Final residual = 0, No Iterations 1
DILUPBiCG:  Solving for Uz, Initial residual = 1, Final residual = 0, No Iterations 1
DILUPBiCG:  Solving for O2, Initial residual = 0.999997, Final residual = 0, No Iterations 1
max of O2 = 0.23301
min of O2 = 0.23301
DILUPBiCG:  Solving for H2O, Initial residual = 1, Final residual = 0, No Iterations 1
max of H2O = -1.01956e-06
min of H2O = -1.01956e-06
DILUPBiCG:  Solving for CH4, Initial residual = 0.999941, Final residual = 0, No Iterations 1
max of CH4 = 1.30615e-12
min of CH4 = 1.43405e-15
DILUPBiCG:  Solving for CO2, Initial residual = 1, Final residual = 0, No Iterations 1
max of CO2 = -1.2677e-06
min of CO2 = -1.2677e-06
max of N2 = 0.766992
min of N2 = 0
DICPCG:  Solving for G, Initial residual = 1, Final residual = 0, No Iterations 1
DILUPBiCG:  Solving for hs, Initial residual = 1, Final residual = 0, No Iterations 1
GAMG:  Solving for p_rgh, Initial residual = 1, Final residual = 0, No Iterations 1
diagonal:  Solving for rho, Initial residual = 0, Final residual = 0, No Iterations 0
time step continuity errors : sum local = 5.57652e-14, global = 5.57652e-14, cumulative = 3.75514e-13
GAMG:  Solving for p_rgh, Initial residual = 1, Final residual = 0, No Iterations 1
diagonal:  Solving for rho, Initial residual = 0, Final residual = 0, No Iterations 0
time step continuity errors : sum local = 4.55353e-13, global = 4.55353e-13, cumulative = 8.30867e-13
DILUPBiCG:  Solving for k, Initial residual = 1, Final residual = 0, No Iterations 1

Evolving reactingOneDim for region panelRegion
diagonal:  Solving for rho, Initial residual = 0, Final residual = 0, No Iterations 0
diagonal:  Solving for Yv, Initial residual = 0, Final residual = 0, No Iterations 0
DICPCG:  Solving for T, Initial residual = 0.0201467, Final residual = 9.30609e-19, No Iterations 1
pyrolysis min/max(T) = 298.15, 522.214

Pyrolysis: reactingOneDim
    Total gas mass produced  [kg] = 4.85295e-07
    Total solid mass lost    [kg] = -4.85295e-07
    Total pyrolysis gases  [kg/s] = 1.49983e-06
    Total heat release rate [J/s] = -2.35041

ExecutionTime = 0.11 s  ClockTime = 0 s

Courant Number mean: 0 max: 0
Time = 3.8

diagonal:  Solving for rho, Initial residual = 0, Final residual = 0, No Iterations 0
DILUPBiCG:  Solving for Ux, Initial residual = 1, Final residual = 0, No Iterations 1
DILUPBiCG:  Solving for Uz, Initial residual = 1, Final residual = 0, No Iterations 1
DILUPBiCG:  Solving for O2, Initial residual = 1, Final residual = 1.22592e-16, No Iterations 1
max of O2 = 0.23301
min of O2 = 0.232729
DILUPBiCG:  Solving for H2O, Initial residual = 1, Final residual = 0, No Iterations 1
max of H2O = -1.0277e-06
min of H2O = -1.02894e-06
DILUPBiCG:  Solving for CH4, Initial residual = 1, Final residual = 0, No Iterations 1
max of CH4 = 0.0012069
min of CH4 = 1.4295e-07
DILUPBiCG:  Solving for CO2, Initial residual = 1, Final residual = 0, No Iterations 1
max of CO2 = -1.27313e-06
min of CO2 = -1.27467e-06
max of N2 = 0.766992
min of N2 = 0
DICPCG:  Solving for G, Initial residual = 1, Final residual = 0, No Iterations 1
DILUPBiCG:  Solving for hs, Initial residual = 1, Final residual = 0, No Iterations 1
GAMG:  Solving for p_rgh, Initial residual = 1, Final residual = 0, No Iterations 1
diagonal:  Solving for rho, Initial residual = 0, Final residual = 0, No Iterations 0
time step continuity errors : sum local = 8.46696e-13, global = 8.46696e-13, cumulative = 1.67756e-12
GAMG:  Solving for p_rgh, Initial residual = 1, Final residual = 0, No Iterations 1
diagonal:  Solving for rho, Initial residual = 0, Final residual = 0, No Iterations 0
time step continuity errors : sum local = 8.4274e-13, global = -8.4274e-13, cumulative = 8.34823e-13
DILUPBiCG:  Solving for k, Initial residual = 1, Final residual = 0, No Iterations 1

Evolving reactingOneDim for region panelRegion
diagonal:  Solving for rho, Initial residual = 0, Final residual = 0, No Iterations 0
diagonal:  Solving for Yv, Initial residual = 0, Final residual = 0, No Iterations 0
DICPCG:  Solving for T, Initial residual = 0.0191276, Final residual = 9.46377e-19, No Iterations 1
pyrolysis min/max(T) = 298.15, 527.056

Pyrolysis: reactingOneDim
    Total gas mass produced  [kg] = 9.59966e-07
    Total solid mass lost    [kg] = -9.59966e-07
    Total pyrolysis gases  [kg/s] = 2.37336e-06
    Total heat release rate [J/s] = -3.71934

ExecutionTime = 0.11 s  ClockTime = 0 s

Courant Number mean: 0 max: 0
Time = 4

diagonal:  Solving for rho, Initial residual = 0, Final residual = 0, No Iterations 0
DILUPBiCG:  Solving for Ux, Initial residual = 1, Final residual = 0, No Iterations 1
DILUPBiCG:  Solving for Uz, Initial residual = 1, Final residual = 0, No Iterations 1
DILUPBiCG:  Solving for O2, Initial residual = 1, Final residual = 0, No Iterations 1
max of O2 = 0.23301
min of O2 = 0.232555
DILUPBiCG:  Solving for H2O, Initial residual = 1, Final residual = 0, No Iterations 1
max of H2O = -9.9807e-07
min of H2O = -1.00002e-06
DILUPBiCG:  Solving for CH4, Initial residual = 1, Final residual = 0, No Iterations 1
max of CH4 = 0.00195081
min of CH4 = 3.6134e-07
DILUPBiCG:  Solving for CO2, Initial residual = 1, Final residual = 1.14551e-16, No Iterations 1
max of CO2 = -1.23676e-06
min of CO2 = -1.23918e-06
max of N2 = 0.766992
min of N2 = 0
DICPCG:  Solving for G, Initial residual = 1, Final residual = 0, No Iterations 1
DILUPBiCG:  Solving for hs, Initial residual = 1, Final residual = 0, No Iterations 1
GAMG:  Solving for p_rgh, Initial residual = 1, Final residual = 0, No Iterations 1
diagonal:  Solving for rho, Initial residual = 0, Final residual = 0, No Iterations 0
time step continuity errors : sum local = 1.7894e-12, global = 1.7894e-12, cumulative = 2.62422e-12
GAMG:  Solving for p_rgh, Initial residual = 1, Final residual = 0, No Iterations 1
diagonal:  Solving for rho, Initial residual = 0, Final residual = 0, No Iterations 0
time step continuity errors : sum local = 1.19701e-12, global = 1.19701e-12, cumulative = 3.82123e-12
DILUPBiCG:  Solving for k, Initial residual = 1, Final residual = 0, No Iterations 1

Evolving reactingOneDim for region panelRegion
diagonal:  Solving for rho, Initial residual = 0, Final residual = 0, No Iterations 0
diagonal:  Solving for Yv, Initial residual = 0, Final residual = 0, No Iterations 0
DICPCG:  Solving for T, Initial residual = 0.0182145, Final residual = 1.10211e-18, No Iterations 1
pyrolysis min/max(T) = 298.151, 531.789

Pyrolysis: reactingOneDim
    Total gas mass produced  [kg] = 1.69554e-06
    Total solid mass lost    [kg] = -1.69554e-06
    Total pyrolysis gases  [kg/s] = 3.67786e-06
    Total heat release rate [J/s] = -5.76366

ExecutionTime = 0.12 s  ClockTime = 0 s

Courant Number mean: 0 max: 0
Time = 4.2

diagonal:  Solving for rho, Initial residual = 0, Final residual = 0, No Iterations 0
DILUPBiCG:  Solving for Ux, Initial residual = 1, Final residual = 0, No Iterations 1
DILUPBiCG:  Solving for Uz, Initial residual = 1, Final residual = 0, No Iterations 1
DILUPBiCG:  Solving for O2, Initial residual = 1, Final residual = 0, No Iterations 1
max of O2 = 0.23301
min of O2 = 0.232292
DILUPBiCG:  Solving for H2O, Initial residual = 1, Final residual = 0, No Iterations 1
max of H2O = -9.2364e-07
min of H2O = -9.26495e-07
DILUPBiCG:  Solving for CH4, Initial residual = 1, Final residual = 1.96031e-16, No Iterations 1
max of CH4 = 0.00308168
min of CH4 = 6.94663e-07
DILUPBiCG:  Solving for CO2, Initial residual = 1, Final residual = 0, No Iterations 1
max of CO2 = -1.14567e-06
min of CO2 = -1.14921e-06
max of N2 = 0.766992
min of N2 = 0
DICPCG:  Solving for G, Initial residual = 1, Final residual = 0, No Iterations 1
DILUPBiCG:  Solving for hs, Initial residual = 1, Final residual = 1.22203e-16, No Iterations 1
GAMG:  Solving for p_rgh, Initial residual = 1, Final residual = 0, No Iterations 1
diagonal:  Solving for rho, Initial residual = 0, Final residual = 0, No Iterations 0
time step continuity errors : sum local = 1.13416e-12, global = -1.13416e-12, cumulative = 2.68708e-12
GAMG:  Solving for p_rgh, Initial residual = 1, Final residual = 0, No Iterations 1
diagonal:  Solving for rho, Initial residual = 0, Final residual = 0, No Iterations 0
time step continuity errors : sum local = 1.99811e-12, global = -1.99811e-12, cumulative = 6.88971e-13
DILUPBiCG:  Solving for k, Initial residual = 1, Final residual = 0, No Iterations 1

Evolving reactingOneDim for region panelRegion
diagonal:  Solving for rho, Initial residual = 0, Final residual = 0, No Iterations 0
diagonal:  Solving for Yv, Initial residual = 0, Final residual = 0, No Iterations 0
DICPCG:  Solving for T, Initial residual = 0.0173911, Final residual = 4.6641e-19, No Iterations 1
pyrolysis min/max(T) = 298.151, 536.415

Pyrolysis: reactingOneDim
    Total gas mass produced  [kg] = 2.81345e-06
    Total solid mass lost    [kg] = -2.81345e-06
    Total pyrolysis gases  [kg/s] = 5.58955e-06
    Total heat release rate [J/s] = -8.7595

ExecutionTime = 0.12 s  ClockTime = 0 s

Courant Number mean: 0 max: 0
Time = 4.4

diagonal:  Solving for rho, Initial residual = 0, Final residual = 0, No Iterations 0
DILUPBiCG:  Solving for Ux, Initial residual = 1, Final residual = 0, No Iterations 1
DILUPBiCG:  Solving for Uz, Initial residual = 1, Final residual = 0, No Iterations 1
DILUPBiCG:  Solving for O2, Initial residual = 1, Final residual = 0, No Iterations 1
max of O2 = 0.233009
min of O2 = 0.231899
DILUPBiCG:  Solving for H2O, Initial residual = 1, Final residual = 1.15189e-16, No Iterations 1
max of H2O = -7.81173e-07
min of H2O = -7.84912e-07
DILUPBiCG:  Solving for CH4, Initial residual = 1, Final residual = 0, No Iterations 1
max of CH4 = 0.00476465
min of CH4 = 1.19899e-06
DILUPBiCG:  Solving for CO2, Initial residual = 1, Final residual = 0, No Iterations 1
max of CO2 = -9.71477e-07
min of CO2 = -9.76127e-07
max of N2 = 0.766992
min of N2 = 0
DICPCG:  Solving for G, Initial residual = 1, Final residual = 0, No Iterations 1
DILUPBiCG:  Solving for hs, Initial residual = 1, Final residual = 0, No Iterations 1
GAMG:  Solving for p_rgh, Initial residual = 1, Final residual = 0, No Iterations 1
diagonal:  Solving for rho, Initial residual = 0, Final residual = 0, No Iterations 0
time step continuity errors : sum local = 3.81598e-13, global = 3.81598e-13, cumulative = 1.07057e-12
GAMG:  Solving for p_rgh, Initial residual = 1, Final residual = 0, No Iterations 1
diagonal:  Solving for rho, Initial residual = 0, Final residual = 0, No Iterations 0
time step continuity errors : sum local = 1.00422e-12, global = -1.00422e-12, cumulative = 6.63529e-14
DILUPBiCG:  Solving for k, Initial residual = 1, Final residual = 0, No Iterations 1

Evolving reactingOneDim for region panelRegion
diagonal:  Solving for rho, Initial residual = 0, Final residual = 0, No Iterations 0
diagonal:  Solving for Yv, Initial residual = 0, Final residual = 0, No Iterations 0
DICPCG:  Solving for T, Initial residual = 0.0166441, Final residual = 9.78341e-19, No Iterations 1
pyrolysis min/max(T) = 298.151, 540.94

Pyrolysis: reactingOneDim
    Total gas mass produced  [kg] = 4.48185e-06
    Total solid mass lost    [kg] = -4.48185e-06
    Total pyrolysis gases  [kg/s] = 8.34203e-06
    Total heat release rate [J/s] = -13.073

ExecutionTime = 0.12 s  ClockTime = 0 s

Courant Number mean: 0 max: 0
Time = 4.6

diagonal:  Solving for rho, Initial residual = 0, Final residual = 0, No Iterations 0
DILUPBiCG:  Solving for Ux, Initial residual = 1, Final residual = 0, No Iterations 1
DILUPBiCG:  Solving for Uz, Initial residual = 1, Final residual = 0, No Iterations 1
DILUPBiCG:  Solving for O2, Initial residual = 1, Final residual = 0, No Iterations 1
max of O2 = 0.233009
min of O2 = 0.231327
DILUPBiCG:  Solving for H2O, Initial residual = 1, Final residual = 1.33486e-16, No Iterations 1
max of H2O = -5.36464e-07
min of H2O = -5.40364e-07
DILUPBiCG:  Solving for CH4, Initial residual = 1, Final residual = 0, No Iterations 1
max of CH4 = 0.00721909
min of CH4 = 1.95249e-06
DILUPBiCG:  Solving for CO2, Initial residual = 1, Final residual = 0, No Iterations 1
max of CO2 = -6.72387e-07
min of CO2 = -6.77275e-07
max of N2 = 0.766991
min of N2 = 0
DICPCG:  Solving for G, Initial residual = 1, Final residual = 0, No Iterations 1
DILUPBiCG:  Solving for hs, Initial residual = 1, Final residual = 0, No Iterations 1
GAMG:  Solving for p_rgh, Initial residual = 1, Final residual = 0, No Iterations 1
diagonal:  Solving for rho, Initial residual = 0, Final residual = 0, No Iterations 0
time step continuity errors : sum local = 1.06819e-12, global = -1.06819e-12, cumulative = -1.00184e-12
GAMG:  Solving for p_rgh, Initial residual = 1, Final residual = 0, No Iterations 1
diagonal:  Solving for rho, Initial residual = 0, Final residual = 0, No Iterations 0
time step continuity errors : sum local = 9.54173e-13, global = 9.54173e-13, cumulative = -4.76654e-14
DILUPBiCG:  Solving for k, Initial residual = 1, Final residual = 0, No Iterations 1

Evolving reactingOneDim for region panelRegion
diagonal:  Solving for rho, Initial residual = 0, Final residual = 0, No Iterations 0
diagonal:  Solving for Yv, Initial residual = 0, Final residual = 0, No Iterations 0
DICPCG:  Solving for T, Initial residual = 0.0159625, Final residual = 1.11317e-18, No Iterations 1
pyrolysis min/max(T) = 298.151, 545.366

Pyrolysis: reactingOneDim
    Total gas mass produced  [kg] = 6.92985e-06
    Total solid mass lost    [kg] = -6.92985e-06
    Total pyrolysis gases  [kg/s] = 1.224e-05
    Total heat release rate [J/s] = -19.1816

ExecutionTime = 0.13 s  ClockTime = 0 s

Courant Number mean: 0 max: 0
Time = 4.8

diagonal:  Solving for rho, Initial residual = 0, Final residual = 0, No Iterations 0
DILUPBiCG:  Solving for Ux, Initial residual = 1, Final residual = 0, No Iterations 1
DILUPBiCG:  Solving for Uz, Initial residual = 1, Final residual = 0, No Iterations 1
DILUPBiCG:  Solving for O2, Initial residual = 1, Final residual = 0, No Iterations 1
max of O2 = 0.233008
min of O2 = 0.230508
DILUPBiCG:  Solving for H2O, Initial residual = 1, Final residual = 0, No Iterations 1
max of H2O = -1.4046e-07
min of H2O = -1.41983e-07
DILUPBiCG:  Solving for CH4, Initial residual = 1, Final residual = 1.17776e-16, No Iterations 1
max of CH4 = 0.0107295
min of CH4 = 3.06234e-06
DILUPBiCG:  Solving for CO2, Initial residual = 1, Final residual = 0, No Iterations 1
max of CO2 = -1.8848e-07
min of CO2 = -1.90524e-07
max of N2 = 0.766991
min of N2 = 0
DICPCG:  Solving for G, Initial residual = 1, Final residual = 0, No Iterations 1
DILUPBiCG:  Solving for hs, Initial residual = 1, Final residual = 0, No Iterations 1
GAMG:  Solving for p_rgh, Initial residual = 1, Final residual = 0, No Iterations 1
diagonal:  Solving for rho, Initial residual = 0, Final residual = 0, No Iterations 0
time step continuity errors : sum local = 3.94111e-13, global = 3.94111e-13, cumulative = 3.46445e-13
GAMG:  Solving for p_rgh, Initial residual = 1, Final residual = 0, No Iterations 1
diagonal:  Solving for rho, Initial residual = 0, Final residual = 0, No Iterations 0
time step continuity errors : sum local = 3.4831e-13, global = -3.4831e-13, cumulative = -1.86485e-15
DILUPBiCG:  Solving for k, Initial residual = 1, Final residual = 0, No Iterations 1

Evolving reactingOneDim for region panelRegion
diagonal:  Solving for rho, Initial residual = 0, Final residual = 0, No Iterations 0
diagonal:  Solving for Yv, Initial residual = 0, Final residual = 0, No Iterations 0
DICPCG:  Solving for T, Initial residual = 0.0153368, Final residual = 1.15737e-18, No Iterations 1
pyrolysis min/max(T) = 298.152, 549.696

Pyrolysis: reactingOneDim
    Total gas mass produced  [kg] = 1.04647e-05
    Total solid mass lost    [kg] = -1.04647e-05
    Total pyrolysis gases  [kg/s] = 1.76744e-05
    Total heat release rate [J/s] = -27.6979

ExecutionTime = 0.13 s  ClockTime = 0 s

Courant Number mean: 0 max: 0
Time = 5

diagonal:  Solving for rho, Initial residual = 0, Final residual = 0, No Iterations 0
DILUPBiCG:  Solving for Ux, Initial residual = 1, Final residual = 0, No Iterations 1
DILUPBiCG:  Solving for Uz, Initial residual = 1, Final residual = 0, No Iterations 1
DILUPBiCG:  Solving for O2, Initial residual = 1, Final residual = 0, No Iterations 1
max of O2 = 0.233006
min of O2 = 0.229359
DILUPBiCG:  Solving for H2O, Initial residual = 1, Final residual = 0, No Iterations 1
max of H2O = 4.82972e-07
min of H2O = 4.75414e-07
DILUPBiCG:  Solving for CH4, Initial residual = 1, Final residual = 0, No Iterations 1
max of CH4 = 0.015655
min of CH4 = 4.67302e-06
DILUPBiCG:  Solving for CO2, Initial residual = 1, Final residual = 0, No Iterations 1
max of CO2 = 5.72977e-07
min of CO2 = 5.6401e-07
max of N2 = 0.76699
min of N2 = 0
DICPCG:  Solving for G, Initial residual = 1, Final residual = 0, No Iterations 1
DILUPBiCG:  Solving for hs, Initial residual = 1, Final residual = 1.27247e-16, No Iterations 1
GAMG:  Solving for p_rgh, Initial residual = 1, Final residual = 0, No Iterations 1
diagonal:  Solving for rho, Initial residual = 0, Final residual = 0, No Iterations 0
time step continuity errors : sum local = 1.16062e-12, global = -1.16062e-12, cumulative = -1.16248e-12
GAMG:  Solving for p_rgh, Initial residual = 1, Final residual = 0, No Iterations 1
diagonal:  Solving for rho, Initial residual = 0, Final residual = 0, No Iterations 0
time step continuity errors : sum local = 4.01889e-13, global = -4.01889e-13, cumulative = -1.56437e-12
DILUPBiCG:  Solving for k, Initial residual = 1, Final residual = 0, No Iterations 1

Evolving reactingOneDim for region panelRegion
diagonal:  Solving for rho, Initial residual = 0, Final residual = 0, No Iterations 0
diagonal:  Solving for Yv, Initial residual = 0, Final residual = 0, No Iterations 0
DICPCG:  Solving for T, Initial residual = 0.0147592, Final residual = 8.58584e-20, No Iterations 1
pyrolysis min/max(T) = 298.152, 553.932

Pyrolysis: reactingOneDim
    Total gas mass produced  [kg] = 1.54924e-05
    Total solid mass lost    [kg] = -1.54924e-05
    Total pyrolysis gases  [kg/s] = 2.51385e-05
    Total heat release rate [J/s] = -39.3951

ExecutionTime = 0.14 s  ClockTime = 0 s

Courant Number mean: 0 max: 0
Time = 5.2

diagonal:  Solving for rho, Initial residual = 0, Final residual = 0, No Iterations 0
DILUPBiCG:  Solving for Ux, Initial residual = 1, Final residual = 1.1766e-16, No Iterations 1
DILUPBiCG:  Solving for Uz, Initial residual = 1, Final residual = 0, No Iterations 1
DILUPBiCG:  Solving for O2, Initial residual = 1, Final residual = 0, No Iterations 1
max of O2 = 0.233004
min of O2 = 0.227778
DILUPBiCG:  Solving for H2O, Initial residual = 1, Final residual = 0, No Iterations 1
max of H2O = 1.43673e-06
min of H2O = 1.40451e-06
DILUPBiCG:  Solving for CH4, Initial residual = 1, Final residual = 0, No Iterations 1
max of CH4 = 0.0224357
min of CH4 = 6.97637e-06
DILUPBiCG:  Solving for CO2, Initial residual = 1, Final residual = 1.12201e-16, No Iterations 1
max of CO2 = 1.7381e-06
min of CO2 = 1.69912e-06
max of N2 = 0.766988
min of N2 = 0
DICPCG:  Solving for G, Initial residual = 1, Final residual = 0, No Iterations 1
DILUPBiCG:  Solving for hs, Initial residual = 1, Final residual = 0, No Iterations 1
GAMG:  Solving for p_rgh, Initial residual = 1, Final residual = 0, No Iterations 1
diagonal:  Solving for rho, Initial residual = 0, Final residual = 0, No Iterations 0
time step continuity errors : sum local = 5.3487e-13, global = 5.3487e-13, cumulative = -1.0295e-12
GAMG:  Solving for p_rgh, Initial residual = 1, Final residual = 0, No Iterations 1
diagonal:  Solving for rho, Initial residual = 0, Final residual = 0, No Iterations 0
time step continuity errors : sum local = 9.33996e-13, global = 9.33996e-13, cumulative = -9.55041e-14
DILUPBiCG:  Solving for k, Initial residual = 1, Final residual = 0, No Iterations 1

Evolving reactingOneDim for region panelRegion
diagonal:  Solving for rho, Initial residual = 0, Final residual = 0, No Iterations 0
diagonal:  Solving for Yv, Initial residual = 0, Final residual = 0, No Iterations 0
DICPCG:  Solving for T, Initial residual = 0.0142226, Final residual = 6.90632e-19, No Iterations 1
pyrolysis min/max(T) = 298.153, 558.073

Pyrolysis: reactingOneDim
    Total gas mass produced  [kg] = 2.25414e-05
    Total solid mass lost    [kg] = -2.25414e-05
    Total pyrolysis gases  [kg/s] = 3.52446e-05
    Total heat release rate [J/s] = -55.2326

ExecutionTime = 0.14 s  ClockTime = 0 s

Courant Number mean: 0 max: 0
Time = 5.4

diagonal:  Solving for rho, Initial residual = 0, Final residual = 0, No Iterations 0
DILUPBiCG:  Solving for Ux, Initial residual = 1, Final residual = 1.42302e-16, No Iterations 1
DILUPBiCG:  Solving for Uz, Initial residual = 1, Final residual = 0, No Iterations 1
DILUPBiCG:  Solving for O2, Initial residual = 1, Final residual = 0, No Iterations 1
max of O2 = 0.233
min of O2 = 0.225642
DILUPBiCG:  Solving for H2O, Initial residual = 1, Final residual = 0, No Iterations 1
max of H2O = 2.86068e-06
min of H2O = 2.77033e-06
DILUPBiCG:  Solving for CH4, Initial residual = 1, Final residual = 0, No Iterations 1
max of CH4 = 0.0315911
min of CH4 = 1.02231e-05
DILUPBiCG:  Solving for CO2, Initial residual = 1, Final residual = 0, No Iterations 1
max of CO2 = 3.47753e-06
min of CO2 = 3.36771e-06
max of N2 = 0.766986
min of N2 = 0
DICPCG:  Solving for G, Initial residual = 1, Final residual = 0, No Iterations 1
DILUPBiCG:  Solving for hs, Initial residual = 1, Final residual = 0, No Iterations 1
GAMG:  Solving for p_rgh, Initial residual = 1, Final residual = 0, No Iterations 1
diagonal:  Solving for rho, Initial residual = 0, Final residual = 0, No Iterations 0
time step continuity errors : sum local = 9.15332e-13, global = -9.15332e-13, cumulative = -1.01084e-12
GAMG:  Solving for p_rgh, Initial residual = 1, Final residual = 0, No Iterations 1
diagonal:  Solving for rho, Initial residual = 0, Final residual = 0, No Iterations 0
time step continuity errors : sum local = 1.89704e-13, global = 1.89704e-13, cumulative = -8.21132e-13
DILUPBiCG:  Solving for k, Initial residual = 1, Final residual = 0, No Iterations 1

Evolving reactingOneDim for region panelRegion
diagonal:  Solving for rho, Initial residual = 0, Final residual = 0, No Iterations 0
diagonal:  Solving for Yv, Initial residual = 0, Final residual = 0, No Iterations 0
DICPCG:  Solving for T, Initial residual = 0.0137208, Final residual = 1.37496e-18, No Iterations 1
pyrolysis min/max(T) = 298.153, 562.121

Pyrolysis: reactingOneDim
    Total gas mass produced  [kg] = 3.2289e-05
    Total solid mass lost    [kg] = -3.2289e-05
    Total pyrolysis gases  [kg/s] = 4.87384e-05
    Total heat release rate [J/s] = -76.3791

ExecutionTime = 0.14 s  ClockTime = 0 s

Courant Number mean: 0 max: 0
Time = 5.6

diagonal:  Solving for rho, Initial residual = 0, Final residual = 0, No Iterations 0
DILUPBiCG:  Solving for Ux, Initial residual = 1, Final residual = 0, No Iterations 1
DILUPBiCG:  Solving for Uz, Initial residual = 1, Final residual = 0, No Iterations 1
DILUPBiCG:  Solving for O2, Initial residual = 1, Final residual = 0, No Iterations 1
max of O2 = 0.23301
min of O2 = 0.222815
DILUPBiCG:  Solving for H2O, Initial residual = 1, Final residual = 1.25371e-16, No Iterations 1
max of H2O = 4.94666e-06
min of H2O = 0
DILUPBiCG:  Solving for CH4, Initial residual = 1, Final residual = 0, No Iterations 1
max of CH4 = 0.0437081
min of CH4 = 0
DILUPBiCG:  Solving for CO2, Initial residual = 1, Final residual = 0, No Iterations 1
max of CO2 = 6.02562e-06
min of CO2 = 0
max of N2 = 0.766983
min of N2 = 0
DICPCG:  Solving for G, Initial residual = 1, Final residual = 0, No Iterations 1
DILUPBiCG:  Solving for hs, Initial residual = 1, Final residual = 1.20819e-16, No Iterations 1
GAMG:  Solving for p_rgh, Initial residual = 1, Final residual = 0, No Iterations 1
diagonal:  Solving for rho, Initial residual = 0, Final residual = 0, No Iterations 0
time step continuity errors : sum local = 6.72443e-13, global = 6.72443e-13, cumulative = -1.48689e-13
GAMG:  Solving for p_rgh, Initial residual = 1, Final residual = 0, No Iterations 1
diagonal:  Solving for rho, Initial residual = 0, Final residual = 0, No Iterations 0
time step continuity errors : sum local = 5.6587e-15, global = 5.6587e-15, cumulative = -1.4303e-13
DILUPBiCG:  Solving for k, Initial residual = 1, Final residual = 0, No Iterations 1

Evolving reactingOneDim for region panelRegion
diagonal:  Solving for rho, Initial residual = 0, Final residual = 0, No Iterations 0
diagonal:  Solving for Yv, Initial residual = 0, Final residual = 0, No Iterations 0
DICPCG:  Solving for T, Initial residual = 0.0132483, Final residual = 1.65384e-18, No Iterations 1
pyrolysis min/max(T) = 298.154, 566.074

Pyrolysis: reactingOneDim
    Total gas mass produced  [kg] = 4.55912e-05
    Total solid mass lost    [kg] = -4.55912e-05
    Total pyrolysis gases  [kg/s] = 6.65106e-05
    Total heat release rate [J/s] = -104.23

ExecutionTime = 0.15 s  ClockTime = 0 s

Courant Number mean: 0 max: 0
Time = 5.8

diagonal:  Solving for rho, Initial residual = 0, Final residual = 0, No Iterations 0
DILUPBiCG:  Solving for Ux, Initial residual = 1, Final residual = 0, No Iterations 1
DILUPBiCG:  Solving for Uz, Initial residual = 1, Final residual = 0, No Iterations 1
DILUPBiCG:  Solving for O2, Initial residual = 1, Final residual = 0, No Iterations 1
max of O2 = 0.23301
min of O2 = 0.219151
DILUPBiCG:  Solving for H2O, Initial residual = 1, Final residual = 0, No Iterations 1
max of H2O = 7.95261e-06
min of H2O = 0
DILUPBiCG:  Solving for CH4, Initial residual = 1, Final residual = 0, No Iterations 1
max of CH4 = 0.0594112
min of CH4 = 0
DILUPBiCG:  Solving for CO2, Initial residual = 1, Final residual = 0, No Iterations 1
max of CO2 = 9.69741e-06
min of CO2 = 0
max of N2 = 0.76699
min of N2 = 0
DICPCG:  Solving for G, Initial residual = 1, Final residual = 0, No Iterations 1
DILUPBiCG:  Solving for hs, Initial residual = 1, Final residual = 0, No Iterations 1
GAMG:  Solving for p_rgh, Initial residual = 1, Final residual = 0, No Iterations 1
diagonal:  Solving for rho, Initial residual = 0, Final residual = 0, No Iterations 0
time step continuity errors : sum local = 1.11044e-12, global = 1.11044e-12, cumulative = 9.67413e-13
GAMG:  Solving for p_rgh, Initial residual = 1, Final residual = 0, No Iterations 1
diagonal:  Solving for rho, Initial residual = 0, Final residual = 0, No Iterations 0
time step continuity errors : sum local = 5.48523e-13, global = -5.48523e-13, cumulative = 4.1889e-13
DILUPBiCG:  Solving for k, Initial residual = 1, Final residual = 0, No Iterations 1

Evolving reactingOneDim for region panelRegion
diagonal:  Solving for rho, Initial residual = 0, Final residual = 0, No Iterations 0
diagonal:  Solving for Yv, Initial residual = 0, Final residual = 0, No Iterations 0
DICPCG:  Solving for T, Initial residual = 0.0128001, Final residual = 1.20165e-18, No Iterations 1
pyrolysis min/max(T) = 298.155, 569.931

Pyrolysis: reactingOneDim
    Total gas mass produced  [kg] = 6.35113e-05
    Total solid mass lost    [kg] = -6.35113e-05
    Total pyrolysis gases  [kg/s] = 8.96006e-05
    Total heat release rate [J/s] = -140.415

ExecutionTime = 0.15 s  ClockTime = 0 s

Courant Number mean: 0 max: 0
Time = 6

diagonal:  Solving for rho, Initial residual = 0, Final residual = 0, No Iterations 0
DILUPBiCG:  Solving for Ux, Initial residual = 1, Final residual = 0, No Iterations 1
DILUPBiCG:  Solving for Uz, Initial residual = 1, Final residual = 1.16054e-16, No Iterations 1
DILUPBiCG:  Solving for O2, Initial residual = 1, Final residual = 0, No Iterations 1
max of O2 = 0.23301
min of O2 = 0.214506
DILUPBiCG:  Solving for H2O, Initial residual = 1, Final residual = 1.22661e-16, No Iterations 1
max of H2O = 1.22193e-05
min of H2O = 0
DILUPBiCG:  Solving for CH4, Initial residual = 1, Final residual = 0, No Iterations 1
max of CH4 = 0.0793124
min of CH4 = 0
DILUPBiCG:  Solving for CO2, Initial residual = 1, Final residual = 0, No Iterations 1
max of CO2 = 1.49092e-05
min of CO2 = 0
max of N2 = 0.76699
min of N2 = 0
DICPCG:  Solving for G, Initial residual = 1, Final residual = 0, No Iterations 1
DILUPBiCG:  Solving for hs, Initial residual = 1, Final residual = 0, No Iterations 1
GAMG:  Solving for p_rgh, Initial residual = 1, Final residual = 0, No Iterations 1
diagonal:  Solving for rho, Initial residual = 0, Final residual = 0, No Iterations 0
time step continuity errors : sum local = 6.08437e-13, global = 6.08437e-13, cumulative = 1.02733e-12
GAMG:  Solving for p_rgh, Initial residual = 1, Final residual = 0, No Iterations 1
diagonal:  Solving for rho, Initial residual = 0, Final residual = 0, No Iterations 0
time step continuity errors : sum local = 5.60109e-13, global = 5.60109e-13, cumulative = 1.58744e-12
DILUPBiCG:  Solving for k, Initial residual = 1, Final residual = 1.29889e-16, No Iterations 1

Evolving reactingOneDim for region panelRegion
diagonal:  Solving for rho, Initial residual = 0, Final residual = 0, No Iterations 0
diagonal:  Solving for Yv, Initial residual = 0, Final residual = 0, No Iterations 0
DICPCG:  Solving for T, Initial residual = 0.0123716, Final residual = 1.48767e-18, No Iterations 1
pyrolysis min/max(T) = 298.156, 573.687

Pyrolysis: reactingOneDim
    Total gas mass produced  [kg] = 8.73492e-05
    Total solid mass lost    [kg] = -8.73492e-05
    Total pyrolysis gases  [kg/s] = 0.000119189
    Total heat release rate [J/s] = -186.784

ExecutionTime = 0.16 s  ClockTime = 0 s

Courant Number mean: 0 max: 0
Time = 6.2

diagonal:  Solving for rho, Initial residual = 0, Final residual = 0, No Iterations 0
DILUPBiCG:  Solving for Ux, Initial residual = 1, Final residual = 0, No Iterations 1
DILUPBiCG:  Solving for Uz, Initial residual = 1, Final residual = 0, No Iterations 1
DILUPBiCG:  Solving for O2, Initial residual = 1, Final residual = 0, No Iterations 1
max of O2 = 0.23301
min of O2 = 0.208759
DILUPBiCG:  Solving for H2O, Initial residual = 1, Final residual = 0, No Iterations 1
max of H2O = 1.81907e-05
min of H2O = 0
DILUPBiCG:  Solving for CH4, Initial residual = 1, Final residual = 0, No Iterations 1
max of CH4 = 0.103937
min of CH4 = 0
DILUPBiCG:  Solving for CO2, Initial residual = 1, Final residual = 0, No Iterations 1
max of CO2 = 2.22031e-05
min of CO2 = 0
max of N2 = 0.76699
min of N2 = 0
DICPCG:  Solving for G, Initial residual = 1, Final residual = 0, No Iterations 1
DILUPBiCG:  Solving for hs, Initial residual = 1, Final residual = 0, No Iterations 1
GAMG:  Solving for p_rgh, Initial residual = 1, Final residual = 0, No Iterations 1
diagonal:  Solving for rho, Initial residual = 0, Final residual = 0, No Iterations 0
time step continuity errors : sum local = 2.65779e-13, global = -2.65779e-13, cumulative = 1.32166e-12
GAMG:  Solving for p_rgh, Initial residual = 1, Final residual = 0, No Iterations 1
diagonal:  Solving for rho, Initial residual = 0, Final residual = 0, No Iterations 0
time step continuity errors : sum local = 5.10024e-15, global = 5.10024e-15, cumulative = 1.32676e-12
DILUPBiCG:  Solving for k, Initial residual = 1, Final residual = 0, No Iterations 1

Evolving reactingOneDim for region panelRegion
diagonal:  Solving for rho, Initial residual = 0, Final residual = 0, No Iterations 0
diagonal:  Solving for Yv, Initial residual = 0, Final residual = 0, No Iterations 0
DICPCG:  Solving for T, Initial residual = 0.0119586, Final residual = 3.64623e-19, No Iterations 1
pyrolysis min/max(T) = 298.158, 577.339

Pyrolysis: reactingOneDim
    Total gas mass produced  [kg] = 0.000118664
    Total solid mass lost    [kg] = -0.000118664
    Total pyrolysis gases  [kg/s] = 0.000156575
    Total heat release rate [J/s] = -245.373

ExecutionTime = 0.16 s  ClockTime = 0 s

Courant Number mean: 0 max: 0
Time = 6.4

diagonal:  Solving for rho, Initial residual = 0, Final residual = 0, No Iterations 0
DILUPBiCG:  Solving for Ux, Initial residual = 1, Final residual = 0, No Iterations 1
DILUPBiCG:  Solving for Uz, Initial residual = 1, Final residual = 0, No Iterations 1
DILUPBiCG:  Solving for O2, Initial residual = 1, Final residual = 0, No Iterations 1
max of O2 = 0.23301
min of O2 = 0.201828
DILUPBiCG:  Solving for H2O, Initial residual = 1, Final residual = 1.27062e-16, No Iterations 1
max of H2O = 2.64364e-05
min of H2O = 0
DILUPBiCG:  Solving for CH4, Initial residual = 1, Final residual = 0, No Iterations 1
max of CH4 = 0.133631
min of CH4 = 0
DILUPBiCG:  Solving for CO2, Initial residual = 1, Final residual = 0, No Iterations 1
max of CO2 = 3.2275e-05
min of CO2 = 0
max of N2 = 0.76699
min of N2 = 0
DICPCG:  Solving for G, Initial residual = 1, Final residual = 0, No Iterations 1
DILUPBiCG:  Solving for hs, Initial residual = 1, Final residual = 0, No Iterations 1
GAMG:  Solving for p_rgh, Initial residual = 1, Final residual = 0, No Iterations 1
diagonal:  Solving for rho, Initial residual = 0, Final residual = 0, No Iterations 0
time step continuity errors : sum local = 6.99503e-13, global = 6.99503e-13, cumulative = 2.02626e-12
GAMG:  Solving for p_rgh, Initial residual = 1, Final residual = 0, No Iterations 1
diagonal:  Solving for rho, Initial residual = 0, Final residual = 0, No Iterations 0
time step continuity errors : sum local = 3.01731e-13, global = -3.01731e-13, cumulative = 1.72453e-12
DILUPBiCG:  Solving for k, Initial residual = 1, Final residual = 0, No Iterations 1

Evolving reactingOneDim for region panelRegion
diagonal:  Solving for rho, Initial residual = 0, Final residual = 0, No Iterations 0
diagonal:  Solving for Yv, Initial residual = 0, Final residual = 0, No Iterations 0
DICPCG:  Solving for T, Initial residual = 0.0115573, Final residual = 8.47016e-19, No Iterations 1
pyrolysis min/max(T) = 298.159, 580.881

Pyrolysis: reactingOneDim
    Total gas mass produced  [kg] = 0.00015929
    Total solid mass lost    [kg] = -0.00015929
    Total pyrolysis gases  [kg/s] = 0.000203129
    Total heat release rate [J/s] = -318.327

ExecutionTime = 0.16 s  ClockTime = 0 s

Courant Number mean: 0 max: 0
Time = 6.6

diagonal:  Solving for rho, Initial residual = 0, Final residual = 0, No Iterations 0
DILUPBiCG:  Solving for Ux, Initial residual = 1, Final residual = 0, No Iterations 1
DILUPBiCG:  Solving for Uz, Initial residual = 1, Final residual = 0, No Iterations 1
DILUPBiCG:  Solving for O2, Initial residual = 1, Final residual = 0, No Iterations 1
max of O2 = 0.23301
min of O2 = 0.193696
DILUPBiCG:  Solving for H2O, Initial residual = 1, Final residual = 0, No Iterations 1
max of H2O = 3.76765e-05
min of H2O = 0
DILUPBiCG:  Solving for CH4, Initial residual = 1, Final residual = 0, No Iterations 1
max of CH4 = 0.168462
min of CH4 = 0
DILUPBiCG:  Solving for CO2, Initial residual = 1, Final residual = 0, No Iterations 1
max of CO2 = 4.60046e-05
min of CO2 = 0
max of N2 = 0.76699
min of N2 = 0
DICPCG:  Solving for G, Initial residual = 1, Final residual = 0, No Iterations 1
DILUPBiCG:  Solving for hs, Initial residual = 1, Final residual = 1.18885e-16, No Iterations 1
GAMG:  Solving for p_rgh, Initial residual = 1, Final residual = 0, No Iterations 1
diagonal:  Solving for rho, Initial residual = 0, Final residual = 0, No Iterations 0
time step continuity errors : sum local = 9.38361e-13, global = 9.38361e-13, cumulative = 2.66289e-12
GAMG:  Solving for p_rgh, Initial residual = 1, Final residual = 0, No Iterations 1
diagonal:  Solving for rho, Initial residual = 0, Final residual = 0, No Iterations 0
time step continuity errors : sum local = 3.52027e-14, global = 3.52027e-14, cumulative = 2.69809e-12
DILUPBiCG:  Solving for k, Initial residual = 1, Final residual = 0, No Iterations 1

Evolving reactingOneDim for region panelRegion
diagonal:  Solving for rho, Initial residual = 0, Final residual = 0, No Iterations 0
diagonal:  Solving for Yv, Initial residual = 0, Final residual = 0, No Iterations 0
DICPCG:  Solving for T, Initial residual = 0.0111644, Final residual = 3.84348e-19, No Iterations 1
pyrolysis min/max(T) = 298.161, 584.306

Pyrolysis: reactingOneDim
    Total gas mass produced  [kg] = 0.000211333
    Total solid mass lost    [kg] = -0.000211333
    Total pyrolysis gases  [kg/s] = 0.000260217
    Total heat release rate [J/s] = -407.791

ExecutionTime = 0.17 s  ClockTime = 0 s

Courant Number mean: 0 max: 0
Time = 6.8

diagonal:  Solving for rho, Initial residual = 0, Final residual = 0, No Iterations 0
DILUPBiCG:  Solving for Ux, Initial residual = 1, Final residual = 0, No Iterations 1
DILUPBiCG:  Solving for Uz, Initial residual = 1, Final residual = 0, No Iterations 1
DILUPBiCG:  Solving for O2, Initial residual = 1, Final residual = 0, No Iterations 1
max of O2 = 0.23301
min of O2 = 0.184432
DILUPBiCG:  Solving for H2O, Initial residual = 1, Final residual = 0, No Iterations 1
max of H2O = 5.28066e-05
min of H2O = 0
DILUPBiCG:  Solving for CH4, Initial residual = 1, Final residual = 0, No Iterations 1
max of CH4 = 0.208134
min of CH4 = 0
DILUPBiCG:  Solving for CO2, Initial residual = 1, Final residual = 0, No Iterations 1
max of CO2 = 6.44855e-05
min of CO2 = 0
max of N2 = 0.76699
min of N2 = 0
DICPCG:  Solving for G, Initial residual = 1, Final residual = 0, No Iterations 1
DILUPBiCG:  Solving for hs, Initial residual = 1, Final residual = 0, No Iterations 1
GAMG:  Solving for p_rgh, Initial residual = 1, Final residual = 0, No Iterations 1
diagonal:  Solving for rho, Initial residual = 0, Final residual = 0, No Iterations 0
time step continuity errors : sum local = 2.77667e-13, global = -2.77667e-13, cumulative = 2.42042e-12
GAMG:  Solving for p_rgh, Initial residual = 1, Final residual = 0, No Iterations 1
diagonal:  Solving for rho, Initial residual = 0, Final residual = 0, No Iterations 0
time step continuity errors : sum local = 1.61293e-13, global = -1.61293e-13, cumulative = 2.25913e-12
DILUPBiCG:  Solving for k, Initial residual = 1, Final residual = 0, No Iterations 1

Evolving reactingOneDim for region panelRegion
[...]
min of H2O = 0
DILUPBiCG:  Solving for CH4, Initial residual = 1, Final residual = 0, No Iterations 1
max of CH4 = 0.663194
min of CH4 = 0
DILUPBiCG:  Solving for CO2, Initial residual = 1, Final residual = 0, No Iterations 1
max of CO2 = 0.107044
min of CO2 = 0
max of N2 = 0.76699
min of N2 = 0
DICPCG:  Solving for G, Initial residual = 1, Final residual = 0, No Iterations 1
DILUPBiCG:  Solving for hs, Initial residual = 1, Final residual = 1.24955e-16, No Iterations 1
GAMG:  Solving for p_rgh, Initial residual = 1, Final residual = 0, No Iterations 1
diagonal:  Solving for rho, Initial residual = 0, Final residual = 0, No Iterations 0
time step continuity errors : sum local = 1.39326e-11, global = 1.39326e-11, cumulative = -2.83358e-07
GAMG:  Solving for p_rgh, Initial residual = 1, Final residual = 2.98031e-06, No Iterations 1000
diagonal:  Solving for rho, Initial residual = 0, Final residual = 0, No Iterations 0
time step continuity errors : sum local = 4.13521e-11, global = 4.13521e-11, cumulative = -2.83316e-07
DILUPBiCG:  Solving for k, Initial residual = 1, Final residual = 0, No Iterations 1

Evolving reactingOneDim for region panelRegion
diagonal:  Solving for rho, Initial residual = 0, Final residual = 0, No Iterations 0
diagonal:  Solving for Yv, Initial residual = 0, Final residual = 0, No Iterations 0
DICPCG:  Solving for T, Initial residual = 0.00124912, Final residual = 2.60993e-19, No Iterations 1
pyrolysis min/max(T) = 444.316, 981.745

Pyrolysis: reactingOneDim
    Total gas mass produced  [kg] = 0.927401
    Total solid mass lost    [kg] = -0.927401
    Total pyrolysis gases  [kg/s] = 0.00862217
    Total heat release rate [J/s] = -13512

ExecutionTime = 2.99 s  ClockTime = 3 s

Courant Number mean: 0 max: 0
Time = 98.6

diagonal:  Solving for rho, Initial residual = 0, Final residual = 0, No Iterations 0
DILUPBiCG:  Solving for Ux, Initial residual = 1, Final residual = 1.25107e-16, No Iterations 1
DILUPBiCG:  Solving for Uz, Initial residual = 1, Final residual = 0, No Iterations 1
DILUPBiCG:  Solving for O2, Initial residual = 1, Final residual = 0, No Iterations 1
max of O2 = 0.23301
min of O2 = 0.0116474
DILUPBiCG:  Solving for H2O, Initial residual = 1, Final residual = 0, No Iterations 1
max of H2O = 0.0880551
min of H2O = 0
DILUPBiCG:  Solving for CH4, Initial residual = 1, Final residual = 0, No Iterations 1
max of CH4 = 0.668285
min of CH4 = 0
DILUPBiCG:  Solving for CO2, Initial residual = 1, Final residual = 0, No Iterations 1
max of CO2 = 0.107556
min of CO2 = 0
max of N2 = 0.76699
min of N2 = 0
DICPCG:  Solving for G, Initial residual = 1, Final residual = 0, No Iterations 1
DILUPBiCG:  Solving for hs, Initial residual = 1, Final residual = 0, No Iterations 1
GAMG:  Solving for p_rgh, Initial residual = 1, Final residual = 0, No Iterations 1
diagonal:  Solving for rho, Initial residual = 0, Final residual = 0, No Iterations 0
time step continuity errors : sum local = 4.192e-12, global = 4.192e-12, cumulative = -2.83312e-07
GAMG:  Solving for p_rgh, Initial residual = 1, Final residual = 3.13311e-06, No Iterations 1000
diagonal:  Solving for rho, Initial residual = 0, Final residual = 0, No Iterations 0
time step continuity errors : sum local = 2.42143e-11, global = -2.42143e-11, cumulative = -2.83336e-07
DILUPBiCG:  Solving for k, Initial residual = 1, Final residual = 0, No Iterations 1

Evolving reactingOneDim for region panelRegion
diagonal:  Solving for rho, Initial residual = 0, Final residual = 0, No Iterations 0
diagonal:  Solving for Yv, Initial residual = 0, Final residual = 0, No Iterations 0
DICPCG:  Solving for T, Initial residual = 0.00124265, Final residual = 3.44403e-19, No Iterations 1
pyrolysis min/max(T) = 444.648, 981.809

Pyrolysis: reactingOneDim
    Total gas mass produced  [kg] = 0.929125
    Total solid mass lost    [kg] = -0.929125
    Total pyrolysis gases  [kg/s] = 0.00861605
    Total heat release rate [J/s] = -13502.4

ExecutionTime = 3.1 s  ClockTime = 3 s

Courant Number mean: 0 max: 0
Time = 98.8

diagonal:  Solving for rho, Initial residual = 0, Final residual = 0, No Iterations 0
DILUPBiCG:  Solving for Ux, Initial residual = 1, Final residual = 0, No Iterations 1
DILUPBiCG:  Solving for Uz, Initial residual = 1, Final residual = 0, No Iterations 1
DILUPBiCG:  Solving for O2, Initial residual = 1, Final residual = 0, No Iterations 1
max of O2 = 0.0264887
min of O2 = 0.0104136
DILUPBiCG:  Solving for H2O, Initial residual = 1, Final residual = 0, No Iterations 1
max of H2O = 0.0888302
min of H2O = 0.034922
DILUPBiCG:  Solving for CH4, Initial residual = 1, Final residual = 0, No Iterations 1
max of CH4 = 0.673554
min of CH4 = 0.169627
DILUPBiCG:  Solving for CO2, Initial residual = 1, Final residual = 0, No Iterations 1
max of CO2 = 0.108503
min of CO2 = 0.0426559
max of N2 = 0.76699
min of N2 = 0
DICPCG:  Solving for G, Initial residual = 1, Final residual = 0, No Iterations 1
DILUPBiCG:  Solving for hs, Initial residual = 1, Final residual = 0, No Iterations 1
GAMG:  Solving for p_rgh, Initial residual = 1, Final residual = 0, No Iterations 1
diagonal:  Solving for rho, Initial residual = 0, Final residual = 0, No Iterations 0
time step continuity errors : sum local = 5.25265e-12, global = 5.25265e-12, cumulative = -2.83331e-07
GAMG:  Solving for p_rgh, Initial residual = 1, Final residual = 0, No Iterations 1
diagonal:  Solving for rho, Initial residual = 0, Final residual = 0, No Iterations 0
time step continuity errors : sum local = 5.51659e-12, global = 5.51659e-12, cumulative = -2.83326e-07
DILUPBiCG:  Solving for k, Initial residual = 1, Final residual = 1.47664e-16, No Iterations 1

Evolving reactingOneDim for region panelRegion
diagonal:  Solving for rho, Initial residual = 0, Final residual = 0, No Iterations 0
diagonal:  Solving for Yv, Initial residual = 0, Final residual = 0, No Iterations 0
DICPCG:  Solving for T, Initial residual = 0.00123621, Final residual = 1.2397e-19, No Iterations 1
pyrolysis min/max(T) = 444.978, 981.873

Pyrolysis: reactingOneDim
    Total gas mass produced  [kg] = 0.930847
    Total solid mass lost    [kg] = -0.930847
    Total pyrolysis gases  [kg/s] = 0.00861002
    Total heat release rate [J/s] = -13492.9

ExecutionTime = 3.11 s  ClockTime = 3 s

Courant Number mean: 0 max: 0
Time = 99

diagonal:  Solving for rho, Initial residual = 0, Final residual = 0, No Iterations 0
DILUPBiCG:  Solving for Ux, Initial residual = 1, Final residual = 1.11445e-16, No Iterations 1
DILUPBiCG:  Solving for Uz, Initial residual = 1, Final residual = 1.4156e-16, No Iterations 1
DILUPBiCG:  Solving for O2, Initial residual = 1, Final residual = 0, No Iterations 1
max of O2 = 0.0238937
min of O2 = 0.00929346
DILUPBiCG:  Solving for H2O, Initial residual = 1, Final residual = 0, No Iterations 1
max of H2O = 0.0894473
min of H2O = 0.0347906
DILUPBiCG:  Solving for CH4, Initial residual = 1, Final residual = 0, No Iterations 1
max of CH4 = 0.679421
min of CH4 = 0.175786
DILUPBiCG:  Solving for CO2, Initial residual = 1, Final residual = 0, No Iterations 1
max of CO2 = 0.109256
min of CO2 = 0.0424953
max of N2 = 0.606551
min of N2 = 0
DICPCG:  Solving for G, Initial residual = 1, Final residual = 0, No Iterations 1
DILUPBiCG:  Solving for hs, Initial residual = 1, Final residual = 0, No Iterations 1
GAMG:  Solving for p_rgh, Initial residual = 1, Final residual = 0, No Iterations 1
diagonal:  Solving for rho, Initial residual = 0, Final residual = 0, No Iterations 0
time step continuity errors : sum local = 4.7297e-12, global = -4.7297e-12, cumulative = -2.8333e-07
GAMG:  Solving for p_rgh, Initial residual = 1, Final residual = 0, No Iterations 1
diagonal:  Solving for rho, Initial residual = 0, Final residual = 0, No Iterations 0
time step continuity errors : sum local = 7.48753e-12, global = -7.48753e-12, cumulative = -2.83338e-07
DILUPBiCG:  Solving for k, Initial residual = 1, Final residual = 0, No Iterations 1

Evolving reactingOneDim for region panelRegion
diagonal:  Solving for rho, Initial residual = 0, Final residual = 0, No Iterations 0
diagonal:  Solving for Yv, Initial residual = 0, Final residual = 0, No Iterations 0
DICPCG:  Solving for T, Initial residual = 0.00122981, Final residual = 8.84883e-20, No Iterations 1
pyrolysis min/max(T) = 445.306, 981.936

Pyrolysis: reactingOneDim
    Total gas mass produced  [kg] = 0.932568
    Total solid mass lost    [kg] = -0.932568
    Total pyrolysis gases  [kg/s] = 0.00860405
    Total heat release rate [J/s] = -13483.6

ExecutionTime = 3.11 s  ClockTime = 3 s

Courant Number mean: 0 max: 0
Time = 99.2

diagonal:  Solving for rho, Initial residual = 0, Final residual = 0, No Iterations 0
DILUPBiCG:  Solving for Ux, Initial residual = 1, Final residual = 1.8756e-16, No Iterations 1
DILUPBiCG:  Solving for Uz, Initial residual = 1, Final residual = 1.46375e-16, No Iterations 1
DILUPBiCG:  Solving for O2, Initial residual = 1, Final residual = 0, No Iterations 1
max of O2 = 0.0215522
min of O2 = 0.00829463
DILUPBiCG:  Solving for H2O, Initial residual = 1, Final residual = 0, No Iterations 1
max of H2O = 0.0899257
min of H2O = 0.034609
DILUPBiCG:  Solving for CH4, Initial residual = 1, Final residual = 0, No Iterations 1
max of CH4 = 0.685173
min of CH4 = 0.181975
DILUPBiCG:  Solving for CO2, Initial residual = 1, Final residual = 0, No Iterations 1
max of CO2 = 0.109841
min of CO2 = 0.0422736
max of N2 = 0.601617
min of N2 = 0
DICPCG:  Solving for G, Initial residual = 1, Final residual = 0, No Iterations 1
DILUPBiCG:  Solving for hs, Initial residual = 1, Final residual = 0, No Iterations 1
GAMG:  Solving for p_rgh, Initial residual = 1, Final residual = 0, No Iterations 1
diagonal:  Solving for rho, Initial residual = 0, Final residual = 0, No Iterations 0
time step continuity errors : sum local = 6.28644e-12, global = -6.28644e-12, cumulative = -2.83344e-07
GAMG:  Solving for p_rgh, Initial residual = 1, Final residual = 0, No Iterations 1
diagonal:  Solving for rho, Initial residual = 0, Final residual = 0, No Iterations 0
time step continuity errors : sum local = 1.617e-12, global = -1.617e-12, cumulative = -2.83346e-07
DILUPBiCG:  Solving for k, Initial residual = 1, Final residual = 0, No Iterations 1

Evolving reactingOneDim for region panelRegion
diagonal:  Solving for rho, Initial residual = 0, Final residual = 0, No Iterations 0
diagonal:  Solving for Yv, Initial residual = 0, Final residual = 0, No Iterations 0
DICPCG:  Solving for T, Initial residual = 0.00122344, Final residual = 1.68199e-19, No Iterations 1
pyrolysis min/max(T) = 445.632, 981.998

Pyrolysis: reactingOneDim
    Total gas mass produced  [kg] = 0.934287
    Total solid mass lost    [kg] = -0.934287
    Total pyrolysis gases  [kg/s] = 0.00859815
    Total heat release rate [J/s] = -13474.4

ExecutionTime = 3.11 s  ClockTime = 3 s

Courant Number mean: 0 max: 0
Time = 99.4

diagonal:  Solving for rho, Initial residual = 0, Final residual = 0, No Iterations 0
DILUPBiCG:  Solving for Ux, Initial residual = 1, Final residual = 0, No Iterations 1
DILUPBiCG:  Solving for Uz, Initial residual = 1, Final residual = 0, No Iterations 1
DILUPBiCG:  Solving for O2, Initial residual = 1, Final residual = 0, No Iterations 1
max of O2 = 0.0194381
min of O2 = 0.00740783
DILUPBiCG:  Solving for H2O, Initial residual = 1, Final residual = 0, No Iterations 1
max of H2O = 0.090281
min of H2O = 0.034406
DILUPBiCG:  Solving for CH4, Initial residual = 1, Final residual = 0, No Iterations 1
max of CH4 = 0.690616
min of CH4 = 0.188181
DILUPBiCG:  Solving for CO2, Initial residual = 1, Final residual = 0, No Iterations 1
max of CO2 = 0.110275
min of CO2 = 0.0420257
max of N2 = 0.596707
min of N2 = 0
DICPCG:  Solving for G, Initial residual = 1, Final residual = 0, No Iterations 1
DILUPBiCG:  Solving for hs, Initial residual = 1, Final residual = 0, No Iterations 1
GAMG:  Solving for p_rgh, Initial residual = 1, Final residual = 0, No Iterations 1
diagonal:  Solving for rho, Initial residual = 0, Final residual = 0, No Iterations 0
time step continuity errors : sum local = 6.22688e-12, global = -6.22688e-12, cumulative = -2.83352e-07
GAMG:  Solving for p_rgh, Initial residual = 1, Final residual = 0, No Iterations 1
diagonal:  Solving for rho, Initial residual = 0, Final residual = 0, No Iterations 0
time step continuity errors : sum local = 1.085e-14, global = 1.085e-14, cumulative = -2.83352e-07
DILUPBiCG:  Solving for k, Initial residual = 1, Final residual = 0, No Iterations 1

Evolving reactingOneDim for region panelRegion
diagonal:  Solving for rho, Initial residual = 0, Final residual = 0, No Iterations 0
diagonal:  Solving for Yv, Initial residual = 0, Final residual = 0, No Iterations 0
DICPCG:  Solving for T, Initial residual = 0.00121711, Final residual = 1.10705e-19, No Iterations 1
pyrolysis min/max(T) = 445.955, 982.06

Pyrolysis: reactingOneDim
    Total gas mass produced  [kg] = 0.936006
    Total solid mass lost    [kg] = -0.936006
    Total pyrolysis gases  [kg/s] = 0.00859233
    Total heat release rate [J/s] = -13465.2

ExecutionTime = 3.12 s  ClockTime = 3 s

Courant Number mean: 0 max: 0
Time = 99.6

diagonal:  Solving for rho, Initial residual = 0, Final residual = 0, No Iterations 0
DILUPBiCG:  Solving for Ux, Initial residual = 1, Final residual = 0, No Iterations 1
DILUPBiCG:  Solving for Uz, Initial residual = 1, Final residual = 0, No Iterations 1
DILUPBiCG:  Solving for O2, Initial residual = 1, Final residual = 0, No Iterations 1
max of O2 = 0.0175298
min of O2 = 0.00661953
DILUPBiCG:  Solving for H2O, Initial residual = 1, Final residual = 0, No Iterations 1
max of H2O = 0.0905261
min of H2O = 0.0341842
DILUPBiCG:  Solving for CH4, Initial residual = 1, Final residual = 1.33031e-16, No Iterations 1
max of CH4 = 0.695789
min of CH4 = 0.194393
DILUPBiCG:  Solving for CO2, Initial residual = 1, Final residual = 0, No Iterations 1
max of CO2 = 0.110574
min of CO2 = 0.0417547
max of N2 = 0.591825
min of N2 = 0
DICPCG:  Solving for G, Initial residual = 1, Final residual = 1.40698e-16, No Iterations 1
DILUPBiCG:  Solving for hs, Initial residual = 1, Final residual = 0, No Iterations 1
GAMG:  Solving for p_rgh, Initial residual = 1, Final residual = 0, No Iterations 1
diagonal:  Solving for rho, Initial residual = 0, Final residual = 0, No Iterations 0
time step continuity errors : sum local = 1.51954e-12, global = 1.51954e-12, cumulative = -2.8335e-07
GAMG:  Solving for p_rgh, Initial residual = 1, Final residual = 0, No Iterations 1
diagonal:  Solving for rho, Initial residual = 0, Final residual = 0, No Iterations 0
time step continuity errors : sum local = 2.79107e-12, global = -2.79107e-12, cumulative = -2.83353e-07
DILUPBiCG:  Solving for k, Initial residual = 1, Final residual = 0, No Iterations 1

Evolving reactingOneDim for region panelRegion
diagonal:  Solving for rho, Initial residual = 0, Final residual = 0, No Iterations 0
diagonal:  Solving for Yv, Initial residual = 0, Final residual = 0, No Iterations 0
DICPCG:  Solving for T, Initial residual = 0.00121081, Final residual = 5.31613e-20, No Iterations 1
pyrolysis min/max(T) = 446.277, 982.121

Pyrolysis: reactingOneDim
    Total gas mass produced  [kg] = 0.937723
    Total solid mass lost    [kg] = -0.937723
    Total pyrolysis gases  [kg/s] = 0.00858656
    Total heat release rate [J/s] = -13456.2

ExecutionTime = 3.12 s  ClockTime = 3 s

Courant Number mean: 0 max: 0
Time = 99.8

diagonal:  Solving for rho, Initial residual = 0, Final residual = 0, No Iterations 0
DILUPBiCG:  Solving for Ux, Initial residual = 1, Final residual = 0, No Iterations 1
DILUPBiCG:  Solving for Uz, Initial residual = 1, Final residual = 0, No Iterations 1
DILUPBiCG:  Solving for O2, Initial residual = 1, Final residual = 0, No Iterations 1
max of O2 = 0.0158077
min of O2 = 0.00591799
DILUPBiCG:  Solving for H2O, Initial residual = 1, Final residual = 0, No Iterations 1
max of H2O = 0.0906726
min of H2O = 0.0339455
DILUPBiCG:  Solving for CH4, Initial residual = 1, Final residual = 0, No Iterations 1
max of CH4 = 0.700725
min of CH4 = 0.200602
DILUPBiCG:  Solving for CO2, Initial residual = 1, Final residual = 1.44597e-16, No Iterations 1
max of CO2 = 0.110753
min of CO2 = 0.0414632
max of N2 = 0.586977
min of N2 = 0
DICPCG:  Solving for G, Initial residual = 1, Final residual = 0, No Iterations 1
DILUPBiCG:  Solving for hs, Initial residual = 1, Final residual = 1.45556e-16, No Iterations 1
GAMG:  Solving for p_rgh, Initial residual = 1, Final residual = 0, No Iterations 1
diagonal:  Solving for rho, Initial residual = 0, Final residual = 0, No Iterations 0
time step continuity errors : sum local = 3.10048e-12, global = -3.10048e-12, cumulative = -2.83356e-07
GAMG:  Solving for p_rgh, Initial residual = 1, Final residual = 0, No Iterations 1
diagonal:  Solving for rho, Initial residual = 0, Final residual = 0, No Iterations 0
time step continuity errors : sum local = 1.96273e-12, global = -1.96273e-12, cumulative = -2.83358e-07
DILUPBiCG:  Solving for k, Initial residual = 1, Final residual = 0, No Iterations 1

Evolving reactingOneDim for region panelRegion
diagonal:  Solving for rho, Initial residual = 0, Final residual = 0, No Iterations 0
diagonal:  Solving for Yv, Initial residual = 0, Final residual = 0, No Iterations 0
DICPCG:  Solving for T, Initial residual = 0.00120454, Final residual = 1.06369e-19, No Iterations 1
pyrolysis min/max(T) = 446.596, 982.182

Pyrolysis: reactingOneDim
    Total gas mass produced  [kg] = 0.939439
    Total solid mass lost    [kg] = -0.939439
    Total pyrolysis gases  [kg/s] = 0.00858086
    Total heat release rate [J/s] = -13447.3

ExecutionTime = 3.13 s  ClockTime = 3 s

Courant Number mean: 0 max: 0
Time = 100

diagonal:  Solving for rho, Initial residual = 0, Final residual = 0, No Iterations 0
DILUPBiCG:  Solving for Ux, Initial residual = 1, Final residual = 0, No Iterations 1
DILUPBiCG:  Solving for Uz, Initial residual = 1, Final residual = 0, No Iterations 1
DILUPBiCG:  Solving for O2, Initial residual = 1, Final residual = 1.33279e-16, No Iterations 1
max of O2 = 0.0142539
min of O2 = 0.00529309
DILUPBiCG:  Solving for H2O, Initial residual = 1, Final residual = 0, No Iterations 1
max of H2O = 0.0907308
min of H2O = 0.0336922
DILUPBiCG:  Solving for CH4, Initial residual = 1, Final residual = 0, No Iterations 1
max of CH4 = 0.705451
min of CH4 = 0.2068
DILUPBiCG:  Solving for CO2, Initial residual = 1, Final residual = 0, No Iterations 1
max of CO2 = 0.110824
min of CO2 = 0.0411537
max of N2 = 0.582165
min of N2 = 0
DICPCG:  Solving for G, Initial residual = 1, Final residual = 0, No Iterations 1
DILUPBiCG:  Solving for hs, Initial residual = 1, Final residual = 0, No Iterations 1
GAMG:  Solving for p_rgh, Initial residual = 1, Final residual = 0, No Iterations 1
diagonal:  Solving for rho, Initial residual = 0, Final residual = 0, No Iterations 0
time step continuity errors : sum local = 6.73054e-12, global = 6.73054e-12, cumulative = -2.83352e-07
GAMG:  Solving for p_rgh, Initial residual = 1, Final residual = 0, No Iterations 1
diagonal:  Solving for rho, Initial residual = 0, Final residual = 0, No Iterations 0
time step continuity errors : sum local = 8.42862e-12, global = -8.42862e-12, cumulative = -2.8336e-07
DILUPBiCG:  Solving for k, Initial residual = 1, Final residual = 0, No Iterations 1

Evolving reactingOneDim for region panelRegion
diagonal:  Solving for rho, Initial residual = 0, Final residual = 0, No Iterations 0
diagonal:  Solving for Yv, Initial residual = 0, Final residual = 0, No Iterations 0
DICPCG:  Solving for T, Initial residual = 0.0011983, Final residual = 4.43401e-20, No Iterations 1
pyrolysis min/max(T) = 446.913, 982.243

Pyrolysis: reactingOneDim
    Total gas mass produced  [kg] = 0.941154
    Total solid mass lost    [kg] = -0.941154
    Total pyrolysis gases  [kg/s] = 0.00857522
    Total heat release rate [J/s] = -13438.4

ExecutionTime = 3.13 s  ClockTime = 3 s

End

