/*---------------------------------------------------------------------------*\
| =========                 |                                                 |
| \\      /  F ield         | OpenFOAM: The Open Source CFD Toolbox           |
|  \\    /   O peration     | Version:  1.7.x                                 |
|   \\  /    A nd           | Web:      www.OpenFOAM.com                      |
|    \\/     M anipulation  |                                                 |
\*---------------------------------------------------------------------------*/
Build  : 1.7.x-868d5097761f
Exec   : fireFoam -parallel
Date   : Jun 02 2011
Time   : 10:53:34
Host   : wangyUbuntu
PID    : 3831
Case   : /home/wangy/OpenFOAM/wangy-1.7.x/run/fireFoam/testBatteryFireFOAM/wallFireSpread2D_MULES
nProcs : 2
Slaves : 
1
(
wangyUbuntu.3832
)

Pstream initialized with:
    floatTransfer     : 0
    nProcsSimpleSum   : 0
    commsType         : nonBlocking
SigFpe : Enabling floating point exception trapping (FOAM_SIGFPE).

// * * * * * * * * * * * * * * * * * * * * * * * * * * * * * * * * * * * * * //
Create time

Create mesh for time = 0


Reading g
Reading thermophysical properties

Selecting thermodynamics package hsPsiMixtureThermoNew<singleStepReactingMixture<gasThermoPhysics>>
Selecting chemistryReader foamChemistryReader
Fuel heat of combustion :4.63574e+07
Mole based specieStoichCoeffs: 5(-5 4 -1 3 18.8)
stoichiometric air-fuel ratio :15.5715
stoichiometric oxygen-fuel ratio :3.62829
Max products: 5(0 0.0986136 0 0.180679 0.720707)
mass based specieStoichCoeffs: 5(-3.62829 1.63418 -1 2.99414 11.9432)
Reading field p_rgh

Reading field U

Reading/calculating face flux field phi

Creating turbulence model

Selecting turbulence model type LESModel
Selecting LES turbulence model oneEqEddy
--> FOAM Warning : 
    From function cubeRootVolDelta::calcDelta()
    in file cubeRootVolDelta/cubeRootVolDelta.C at line 52
    Case is 2D, LES is not strictly applicable

oneEqEddyCoeffs
{
    Prt             1;
    ce              1.048;
    ck              0.094;
}

Creating combustion model

Selecting combustion model infinitelyFastChemistry
stoichiometric mixture fraction is = 0.0603444
Creating field DpDt

Calculating field g.h

Selecting radiationModel fvDOM
Selecting absorptionEmissionModel greyMeanAbsorptionEmission
Selecting scatterModel constantScatter
fvDOM : Allocated 8 rays with average orientation:
	I0	(0.460076 1.11072 5.88935e-33)
	I1	(1.11072 0.460076 5.88935e-33)
	I2	(1.11072 -0.460076 5.88935e-33)
	I3	(0.460076 -1.11072 5.88935e-33)
	I4	(-0.460076 -1.11072 5.88935e-33)
	I5	(-1.11072 -0.460076 5.88935e-33)
	I6	(-1.11072 0.460076 5.88935e-33)
	I7	(-0.460076 1.11072 5.88935e-33)

Creating pyrolysis model

Selecting pyrolysisModel reactingOneDim
Selecting solidChemistryModel "ODESolidChemistryModel<constSolidThermoPhysics>gasThermoPhysics"
ODESolidChemistryModel: Number of solids = 2 and reactions = 1
Number of gases from pyrolysis = 1
Reaction 0
irreversibleSolidArrheniusReaction
    v = char +  gas
    Reaction order: 4.86
(7.83e+10 15274.6 400)
Selecting ODE solver SIBS

Constructing reacting cloud
Selecting DispersionModel none
Selecting DragModel SphereDrag
Selecting InjectionModel ConeInjection
    Constructing 2-D injection
Selecting pdfType RosinRammler
Selecting PatchInteractionModel StandardWallInteraction
Selecting PostProcessingModel none
Selecting U IntegrationScheme Euler
Selecting HeatTransferModel RanzMarshall
Selecting T IntegrationScheme Analytical
Selecting CompositionModel SinglePhaseMixture
Selecting PhaseChangeModel LiquidEvaporation
Courant Number mean: 0 max: 0

Starting time loop

Courant Number mean: 0 max: 0
deltaT = 0.0011976
cellSource HRR:
    total cells  = 800
    total volume = 0.4



faceSource patchBurner:
    total faces  = 4
    total area   = 0.04


faceSource patchPanel:
    total faces  = 10
    total area   = 0.1


faceSource patchOutlet:
    total faces  = 20
    total area   = 0.2


faceSource patchPanelSolidRegion:
    total faces  = 10
    total area   = 0.1


faceSource patchPanelQr:
    total faces  = 10
    total area   = 0.1


faceSource patchWallQr:
    total faces  = 30
    total area   = 0.3


faceSource patchSideQr:
    total faces  = 40
    total area   = 0.4


faceSource patchBurnerQr:
    total faces  = 4
    total area   = 0.04


faceSource patchOutletQr:
    total faces  = 20
    total area   = 0.2


faceSource patchGroundQr:
    total faces  = 16
    total area   = 0.16


Time = 0.0011976

diagonal:  Solving for rho, Initial residual = 0, Final residual = 0, No Iterations 0
DILUPBiCG:  Solving for Ux, Initial residual = 1, Final residual = 2.05601e-10, No Iterations 1
DILUPBiCG:  Solving for Uz, Initial residual = 1, Final residual = 2.14271e-15, No Iterations 2
MULES: Solving for O2
DICPCG:  Solving for O2, Initial residual = 0.015506, Final residual = 2.12043e-13, No Iterations 2
max of O2 = 0.23301
min of O2 = 0.23301
MULES: Solving for H2O
DICPCG:  Solving for H2O, Initial residual = 0, Final residual = 0, No Iterations 0
max of H2O = 0
min of H2O = 0
MULES: Solving for C3H8
DICPCG:  Solving for C3H8, Initial residual = 0.999999, Final residual = 2.8685e-10, No Iterations 1
max of C3H8 = 1.01501e-10
min of C3H8 = 0
MULES: Solving for CO2
DICPCG:  Solving for CO2, Initial residual = 0, Final residual = 0, No Iterations 0
max of CO2 = 0
min of CO2 = 0
max of N2 = 0.76699
min of N2 = 0
MULES: Solving for hs
DICPCG:  Solving for hs, Initial residual = 1, Final residual = 2.77383e-10, No Iterations 1
GAMG:  Solving for p_rgh, Initial residual = 0.975511, Final residual = 0.00791044, No Iterations 5
diagonal:  Solving for rho, Initial residual = 0, Final residual = 0, No Iterations 0
time step continuity errors : sum local = 3.01209e-08, global = -1.48051e-09, cumulative = -1.48051e-09
GAMG:  Solving for p_rgh, Initial residual = 0.0305728, Final residual = 3.65456e-07, No Iterations 11
diagonal:  Solving for rho, Initial residual = 0, Final residual = 0, No Iterations 0
time step continuity errors : sum local = 1.67292e-11, global = -4.2308e-13, cumulative = -1.48094e-09
DILUPBiCG:  Solving for k, Initial residual = 1, Final residual = 8.43673e-11, No Iterations 2

Evolving reactingOneDim for region panelRegion
diagonal:  Solving for rho, Initial residual = 0, Final residual = 0, No Iterations 0
diagonal:  Solving for Yv, Initial residual = 0, Final residual = 0, No Iterations 0
DICPCG:  Solving for T, Initial residual = 0.999354, Final residual = 2.21296e-16, No Iterations 1
pyrolysis min/max(T) = 293, 293

Pyrolysis: reactingOneDim
    Total gas mass produced  [kg] = 0
    Total solid mass lost    [kg] = 0
    Total pyrolysis gases  [kg/s] = 0
    Total heat release rate [J/s] = 0

ExecutionTime = 0.13 s  ClockTime = 0 s

Courant Number mean: 2.93673e-05 max: 0.00179966
deltaT = 0.00143023
Time = 0.00262784

diagonal:  Solving for rho, Initial residual = 0, Final residual = 0, No Iterations 0
DILUPBiCG:  Solving for Ux, Initial residual = 0.350472, Final residual = 1.66016e-10, No Iterations 2
DILUPBiCG:  Solving for Uz, Initial residual = 0.340567, Final residual = 3.09671e-11, No Iterations 2
MULES: Solving for O2
DICPCG:  Solving for O2, Initial residual = 1, Final residual = 2.73036e-10, No Iterations 1
max of O2 = 0.23301
min of O2 = 0.00792329
MULES: Solving for H2O
DICPCG:  Solving for H2O, Initial residual = 1, Final residual = 2.38427e-10, No Iterations 1
max of H2O = 0
min of H2O = -2.07063e-07
MULES: Solving for C3H8
DICPCG:  Solving for C3H8, Initial residual = 1, Final residual = 2.73021e-10, No Iterations 1
max of C3H8 = 0.965996
min of C3H8 = 0
MULES: Solving for CO2
DICPCG:  Solving for CO2, Initial residual = 1, Final residual = 1.6764e-10, No Iterations 1
max of CO2 = 0
min of CO2 = -5.7699e-07
max of N2 = 0.76699
min of N2 = 0
MULES: Solving for hs
DICPCG:  Solving for hs, Initial residual = 0.986565, Final residual = 5.65771e-12, No Iterations 2
GAMG:  Solving for p_rgh, Initial residual = 0.171857, Final residual = 0.000637603, No Iterations 4
diagonal:  Solving for rho, Initial residual = 0, Final residual = 0, No Iterations 0
time step continuity errors : sum local = 5.5252e-08, global = -1.36647e-09, cumulative = -2.84741e-09
GAMG:  Solving for p_rgh, Initial residual = 0.0136118, Final residual = 6.88738e-07, No Iterations 10
diagonal:  Solving for rho, Initial residual = 0, Final residual = 0, No Iterations 0
time step continuity errors : sum local = 1.30494e-10, global = 4.67981e-11, cumulative = -2.80061e-09
DILUPBiCG:  Solving for k, Initial residual = 0.757571, Final residual = 4.27668e-10, No Iterations 2

Evolving reactingOneDim for region panelRegion
diagonal:  Solving for rho, Initial residual = 0, Final residual = 0, No Iterations 0
diagonal:  Solving for Yv, Initial residual = 0, Final residual = 0, No Iterations 0
DICPCG:  Solving for T, Initial residual = 0.988852, Final residual = 1.7392e-16, No Iterations 1
pyrolysis min/max(T) = 293, 293

Pyrolysis: reactingOneDim
    Total gas mass produced  [kg] = 0
    Total solid mass lost    [kg] = 2.1107e-18
    Total pyrolysis gases  [kg/s] = 0
    Total heat release rate [J/s] = 0

ExecutionTime = 0.15 s  ClockTime = 0 s

Courant Number mean: 8.175e-05 max: 0.00156437
deltaT = 0.00170148
Time = 0.00432932

diagonal:  Solving for rho, Initial residual = 0, Final residual = 0, No Iterations 0
DILUPBiCG:  Solving for Ux, Initial residual = 0.296795, Final residual = 1.52382e-09, No Iterations 2
DILUPBiCG:  Solving for Uz, Initial residual = 0.259224, Final residual = 3.70035e-10, No Iterations 2
MULES: Solving for O2
DICPCG:  Solving for O2, Initial residual = 0.0056656, Final residual = 2.19306e-12, No Iterations 1
max of O2 = 0.23301
min of O2 = 0.0076467
MULES: Solving for H2O
DICPCG:  Solving for H2O, Initial residual = 0.999975, Final residual = 2.21388e-14, No Iterations 1
max of H2O = 5.26084e-06
min of H2O = -8.40564e-07
MULES: Solving for C3H8
DICPCG:  Solving for C3H8, Initial residual = 0.0162677, Final residual = 6.29055e-12, No Iterations 1
max of C3H8 = 0.967181
min of C3H8 = 0
MULES: Solving for CO2
DICPCG:  Solving for CO2, Initial residual = 0.999974, Final residual = 1.17958e-14, No Iterations 1
max of CO2 = 9.4432e-06
min of CO2 = -1.54008e-06
max of N2 = 0.766991
min of N2 = 0
MULES: Solving for hs
DICPCG:  Solving for hs, Initial residual = 0.49603, Final residual = 1.44586e-12, No Iterations 2
GAMG:  Solving for p_rgh, Initial residual = 0.0634257, Final residual = 0.0003485, No Iterations 5
diagonal:  Solving for rho, Initial residual = 0, Final residual = 0, No Iterations 0
time step continuity errors : sum local = 6.49411e-08, global = 2.92087e-09, cumulative = 1.20265e-10
GAMG:  Solving for p_rgh, Initial residual = 0.000417687, Final residual = 9.53309e-07, No Iterations 6
diagonal:  Solving for rho, Initial residual = 0, Final residual = 0, No Iterations 0
time step continuity errors : sum local = 1.49917e-10, global = -7.3656e-11, cumulative = 4.6609e-11
DILUPBiCG:  Solving for k, Initial residual = 0.622056, Final residual = 9.7982e-10, No Iterations 2

Evolving reactingOneDim for region panelRegion
diagonal:  Solving for rho, Initial residual = 0, Final residual = 0, No Iterations 0
diagonal:  Solving for Yv, Initial residual = 0, Final residual = 0, No Iterations 0
DICPCG:  Solving for T, Initial residual = 0.314221, Final residual = 6.51228e-17, No Iterations 1
pyrolysis min/max(T) = 293, 293

Pyrolysis: reactingOneDim
    Total gas mass produced  [kg] = 0
    Total solid mass lost    [kg] = 5.21468e-18
    Total pyrolysis gases  [kg/s] = 0
    Total heat release rate [J/s] = 0

ExecutionTime = 0.16 s  ClockTime = 0 s

Courant Number mean: 0.000129472 max: 0.00186085
deltaT = 0.00203824
Time = 0.00636756

diagonal:  Solving for rho, Initial residual = 0, Final residual = 0, No Iterations 0
DILUPBiCG:  Solving for Ux, Initial residual = 0.247396, Final residual = 9.77738e-10, No Iterations 2
DILUPBiCG:  Solving for Uz, Initial residual = 0.168836, Final residual = 2.17662e-10, No Iterations 2
MULES: Solving for O2
DICPCG:  Solving for O2, Initial residual = 0.133735, Final residual = 7.41307e-11, No Iterations 1
max of O2 = 0.23301
min of O2 = 0.00762123
MULES: Solving for H2O
DICPCG:  Solving for H2O, Initial residual = 0.317775, Final residual = 1.23879e-10, No Iterations 1
max of H2O = 0.00020148
min of H2O = -8.4161e-07
MULES: Solving for C3H8
DICPCG:  Solving for C3H8, Initial residual = 0.0198107, Final residual = 1.09809e-11, No Iterations 1
max of C3H8 = 0.967225
min of C3H8 = 0
MULES: Solving for CO2
DICPCG:  Solving for CO2, Initial residual = 0.193841, Final residual = 7.31896e-11, No Iterations 1
max of CO2 = 0.000368956
min of CO2 = -1.54226e-06
max of N2 = 0.766992
min of N2 = 0
MULES: Solving for hs
DICPCG:  Solving for hs, Initial residual = 0.881727, Final residual = 3.41235e-13, No Iterations 2
GAMG:  Solving for p_rgh, Initial residual = 0.215431, Final residual = 0.00178649, No Iterations 5
diagonal:  Solving for rho, Initial residual = 0, Final residual = 0, No Iterations 0
time step continuity errors : sum local = 4.53348e-07, global = -2.77246e-08, cumulative = -2.7678e-08
GAMG:  Solving for p_rgh, Initial residual = 0.00051326, Final residual = 9.48404e-07, No Iterations 6
diagonal:  Solving for rho, Initial residual = 0, Final residual = 0, No Iterations 0
time step continuity errors : sum local = 8.3868e-10, global = -2.95064e-11, cumulative = -2.77075e-08
DILUPBiCG:  Solving for k, Initial residual = 0.822831, Final residual = 4.72194e-12, No Iterations 3

Evolving reactingOneDim for region panelRegion
diagonal:  Solving for rho, Initial residual = 0, Final residual = 0, No Iterations 0
diagonal:  Solving for Yv, Initial residual = 0, Final residual = 0, No Iterations 0
DICPCG:  Solving for T, Initial residual = 0.090786, Final residual = 1.62182e-17, No Iterations 1
pyrolysis min/max(T) = 293, 293

Pyrolysis: reactingOneDim
    Total gas mass produced  [kg] = 0
    Total solid mass lost    [kg] = 8.56697e-18
    Total pyrolysis gases  [kg/s] = 0
    Total heat release rate [J/s] = 0

ExecutionTime = 0.18 s  ClockTime = 0 s

Courant Number mean: 0.000526961 max: 0.00843263
deltaT = 0.00242041
Time = 0.00878796

diagonal:  Solving for rho, Initial residual = 0, Final residual = 0, No Iterations 0
DILUPBiCG:  Solving for Ux, Initial residual = 0.353164, Final residual = 4.995e-08, No Iterations 2
DILUPBiCG:  Solving for Uz, Initial residual = 0.321368, Final residual = 1.07e-08, No Iterations 2
MULES: Solving for O2
DICPCG:  Solving for O2, Initial residual = 0.126346, Final residual = 1.02855e-10, No Iterations 1
max of O2 = 0.23301
min of O2 = 0.00756693
MULES: Solving for H2O
DICPCG:  Solving for H2O, Initial residual = 0.010955, Final residual = 8.71294e-12, No Iterations 1
max of H2O = 0.000608542
min of H2O = -8.41775e-07
MULES: Solving for C3H8
DICPCG:  Solving for C3H8, Initial residual = 0.0208689, Final residual = 1.70537e-11, No Iterations 1
max of C3H8 = 0.967322
min of C3H8 = 0
MULES: Solving for CO2
DICPCG:  Solving for CO2, Initial residual = 0.00603865, Final residual = 4.83057e-12, No Iterations 1
max of CO2 = 0.00111477
min of CO2 = -1.54229e-06
max of N2 = 0.766992
min of N2 = 0
MULES: Solving for hs
DICPCG:  Solving for hs, Initial residual = 0.369796, Final residual = 4.2266e-13, No Iterations 2
GAMG:  Solving for p_rgh, Initial residual = 0.0571328, Final residual = 0.000246016, No Iterations 4
diagonal:  Solving for rho, Initial residual = 0, Final residual = 0, No Iterations 0
time step continuity errors : sum local = 3.05399e-07, global = -1.18276e-08, cumulative = -3.9535e-08
GAMG:  Solving for p_rgh, Initial residual = 0.000202123, Final residual = 7.71802e-07, No Iterations 4
diagonal:  Solving for rho, Initial residual = 0, Final residual = 0, No Iterations 0
time step continuity errors : sum local = 1.56255e-09, global = -9.07703e-11, cumulative = -3.96258e-08
DILUPBiCG:  Solving for k, Initial residual = 0.534117, Final residual = 5.16601e-11, No Iterations 3

Evolving reactingOneDim for region panelRegion
diagonal:  Solving for rho, Initial residual = 0, Final residual = 0, No Iterations 0
diagonal:  Solving for Yv, Initial residual = 0, Final residual = 0, No Iterations 0
DICPCG:  Solving for T, Initial residual = 0.39183, Final residual = 2.31092e-17, No Iterations 1
pyrolysis min/max(T) = 293, 293

Pyrolysis: reactingOneDim
    Total gas mass produced  [kg] = 0
    Total solid mass lost    [kg] = 1.22917e-17
    Total pyrolysis gases  [kg/s] = 0
    Total heat release rate [J/s] = 0

ExecutionTime = 0.19 s  ClockTime = 0 s

Courant Number mean: 0.00134703 max: 0.0173165
deltaT = 0.00289715
Time = 0.0116851

diagonal:  Solving for rho, Initial residual = 0, Final residual = 0, No Iterations 0
DILUPBiCG:  Solving for Ux, Initial residual = 0.323445, Final residual = 2.17218e-10, No Iterations 3
DILUPBiCG:  Solving for Uz, Initial residual = 0.268805, Final residual = 7.5709e-08, No Iterations 2
MULES: Solving for O2
DICPCG:  Solving for O2, Initial residual = 0.105724, Final residual = 1.34025e-10, No Iterations 1
max of O2 = 0.23301
min of O2 = 0.00753048
MULES: Solving for H2O
DICPCG:  Solving for H2O, Initial residual = 0.177084, Final residual = 2.09874e-10, No Iterations 1
max of H2O = 0.0012554
min of H2O = -8.40259e-07
MULES: Solving for C3H8
DICPCG:  Solving for C3H8, Initial residual = 0.021171, Final residual = 2.70608e-11, No Iterations 1
max of C3H8 = 0.96726
min of C3H8 = 0
MULES: Solving for CO2
DICPCG:  Solving for CO2, Initial residual = 0.151753, Final residual = 1.75992e-10, No Iterations 1
max of CO2 = 0.00229994
min of CO2 = -1.54194e-06
max of N2 = 0.766992
min of N2 = 0
MULES: Solving for hs
DICPCG:  Solving for hs, Initial residual = 0.217289, Final residual = 1.85775e-13, No Iterations 2
GAMG:  Solving for p_rgh, Initial residual = 0.019339, Final residual = 0.000144499, No Iterations 5
diagonal:  Solving for rho, Initial residual = 0, Final residual = 0, No Iterations 0
time step continuity errors : sum local = 4.07549e-07, global = 2.69033e-08, cumulative = -1.27225e-08
GAMG:  Solving for p_rgh, Initial residual = 0.000465848, Final residual = 9.95004e-07, No Iterations 6
diagonal:  Solving for rho, Initial residual = 0, Final residual = 0, No Iterations 0
time step continuity errors : sum local = 2.2949e-09, global = -8.72277e-11, cumulative = -1.28098e-08
DILUPBiCG:  Solving for k, Initial residual = 0.331192, Final residual = 2.04257e-10, No Iterations 3

Evolving reactingOneDim for region panelRegion
diagonal:  Solving for rho, Initial residual = 0, Final residual = 0, No Iterations 0
diagonal:  Solving for Yv, Initial residual = 0, Final residual = 0, No Iterations 0
DICPCG:  Solving for T, Initial residual = 0.259735, Final residual = 1.64967e-17, No Iterations 1
pyrolysis min/max(T) = 293, 293

Pyrolysis: reactingOneDim
    Total gas mass produced  [kg] = 0
    Total solid mass lost    [kg] = 1.5644e-17
    Total pyrolysis gases  [kg/s] = 0
    Total heat release rate [J/s] = 0

ExecutionTime = 0.21 s  ClockTime = 0 s

Courant Number mean: 0.00232378 max: 0.02647
deltaT = 0.00342391
Time = 0.015109

diagonal:  Solving for rho, Initial residual = 0, Final residual = 0, No Iterations 0
DILUPBiCG:  Solving for Ux, Initial residual = 0.23477, Final residual = 6.67731e-10, No Iterations 3
DILUPBiCG:  Solving for Uz, Initial residual = 0.160095, Final residual = 2.65357e-10, No Iterations 3
MULES: Solving for O2
DICPCG:  Solving for O2, Initial residual = 0.0889391, Final residual = 1.79208e-10, No Iterations 1
max of O2 = 0.23301
min of O2 = 0.00752395
MULES: Solving for H2O
DICPCG:  Solving for H2O, Initial residual = 0.00643901, Final residual = 1.20603e-11, No Iterations 1
max of H2O = 0.00218596
min of H2O = -8.418e-07
MULES: Solving for C3H8
DICPCG:  Solving for C3H8, Initial residual = 0.0210815, Final residual = 4.29623e-11, No Iterations 1
max of C3H8 = 0.966964
min of C3H8 = 0
MULES: Solving for CO2
DICPCG:  Solving for CO2, Initial residual = 0.00354389, Final residual = 6.69909e-12, No Iterations 1
max of CO2 = 0.00400491
min of CO2 = -1.54236e-06
max of N2 = 0.766992
min of N2 = 0
MULES: Solving for hs
DICPCG:  Solving for hs, Initial residual = 0.150769, Final residual = 1.09119e-13, No Iterations 2
GAMG:  Solving for p_rgh, Initial residual = 0.0252511, Final residual = 0.000227473, No Iterations 4
diagonal:  Solving for rho, Initial residual = 0, Final residual = 0, No Iterations 0
time step continuity errors : sum local = 7.13467e-07, global = 4.91756e-08, cumulative = 3.63658e-08
GAMG:  Solving for p_rgh, Initial residual = 0.000994632, Final residual = 3.83401e-07, No Iterations 6
diagonal:  Solving for rho, Initial residual = 0, Final residual = 0, No Iterations 0
time step continuity errors : sum local = 4.4835e-10, global = 1.25801e-11, cumulative = 3.63784e-08
DILUPBiCG:  Solving for k, Initial residual = 0.23468, Final residual = 4.72649e-10, No Iterations 3

Evolving reactingOneDim for region panelRegion
diagonal:  Solving for rho, Initial residual = 0, Final residual = 0, No Iterations 0
diagonal:  Solving for Yv, Initial residual = 0, Final residual = 0, No Iterations 0
DICPCG:  Solving for T, Initial residual = 0.117884, Final residual = 3.92325e-18, No Iterations 1
pyrolysis min/max(T) = 293, 293

Pyrolysis: reactingOneDim
    Total gas mass produced  [kg] = 0
    Total solid mass lost    [kg] = 1.97413e-17
    Total pyrolysis gases  [kg/s] = 0
    Total heat release rate [J/s] = 0

ExecutionTime = 0.22 s  ClockTime = 0 s

Courant Number mean: 0.00314404 max: 0.0358878
deltaT = 0.00401937
Time = 0.0191284

diagonal:  Solving for rho, Initial residual = 0, Final residual = 0, No Iterations 0
DILUPBiCG:  Solving for Ux, Initial residual = 0.103578, Final residual = 8.33396e-10, No Iterations 3
DILUPBiCG:  Solving for Uz, Initial residual = 0.0707907, Final residual = 8.4721e-08, No Iterations 2
MULES: Solving for O2
DICPCG:  Solving for O2, Initial residual = 0.0757724, Final residual = 2.51506e-10, No Iterations 1
max of O2 = 0.23301
min of O2 = 0.00754664
MULES: Solving for H2O
DICPCG:  Solving for H2O, Initial residual = 0.0946185, Final residual = 3.02876e-10, No Iterations 1
max of H2O = 0.00345504
min of H2O = -8.41656e-07
MULES: Solving for C3H8
DICPCG:  Solving for C3H8, Initial residual = 0.0207635, Final residual = 6.98275e-11, No Iterations 1
max of C3H8 = 0.966401
min of C3H8 = 0
MULES: Solving for CO2
DICPCG:  Solving for CO2, Initial residual = 0.0793877, Final residual = 2.51443e-10, No Iterations 1
max of CO2 = 0.00633011
min of CO2 = -1.54238e-06
max of N2 = 0.766992
min of N2 = 0
MULES: Solving for hs
DICPCG:  Solving for hs, Initial residual = 0.119461, Final residual = 1.4956e-13, No Iterations 2
GAMG:  Solving for p_rgh, Initial residual = 0.034269, Final residual = 0.000158204, No Iterations 4
diagonal:  Solving for rho, Initial residual = 0, Final residual = 0, No Iterations 0
time step continuity errors : sum local = 2.61947e-07, global = 2.11258e-08, cumulative = 5.75042e-08
GAMG:  Solving for p_rgh, Initial residual = 0.00225354, Final residual = 7.04051e-07, No Iterations 6
diagonal:  Solving for rho, Initial residual = 0, Final residual = 0, No Iterations 0
time step continuity errors : sum local = 2.84625e-10, global = 2.68848e-11, cumulative = 5.75311e-08
DILUPBiCG:  Solving for k, Initial residual = 0.18483, Final residual = 9.55571e-10, No Iterations 3

Evolving reactingOneDim for region panelRegion
diagonal:  Solving for rho, Initial residual = 0, Final residual = 0, No Iterations 0
diagonal:  Solving for Yv, Initial residual = 0, Final residual = 0, No Iterations 0
DICPCG:  Solving for T, Initial residual = 0.0640621, Final residual = 1.61687e-18, No Iterations 1
pyrolysis min/max(T) = 293, 293

Pyrolysis: reactingOneDim
    Total gas mass produced  [kg] = 0
    Total solid mass lost    [kg] = 2.48318e-17
    Total pyrolysis gases  [kg/s] = 0
    Total heat release rate [J/s] = 0

ExecutionTime = 0.24 s  ClockTime = 0 s

Courant Number mean: 0.00391095 max: 0.0455429
deltaT = 0.00475978
Time = 0.0238882

diagonal:  Solving for rho, Initial residual = 0, Final residual = 0, No Iterations 0
DILUPBiCG:  Solving for Ux, Initial residual = 0.0363003, Final residual = 7.86349e-10, No Iterations 3
DILUPBiCG:  Solving for Uz, Initial residual = 0.0487054, Final residual = 5.71632e-10, No Iterations 3
MULES: Solving for O2
DICPCG:  Solving for O2, Initial residual = 0.0651526, Final residual = 3.80403e-10, No Iterations 1
max of O2 = 0.23301
min of O2 = 0.00757876
MULES: Solving for H2O
DICPCG:  Solving for H2O, Initial residual = 0.00743637, Final residual = 4.24171e-11, No Iterations 1
max of H2O = 0.00513409
min of H2O = -8.41818e-07
MULES: Solving for C3H8
DICPCG:  Solving for C3H8, Initial residual = 0.0202268, Final residual = 1.19669e-10, No Iterations 1
max of C3H8 = 0.965607
min of C3H8 = 0
MULES: Solving for CO2
DICPCG:  Solving for CO2, Initial residual = 0.0045032, Final residual = 2.5755e-11, No Iterations 1
max of CO2 = 0.00940646
min of CO2 = -1.54237e-06
max of N2 = 0.766992
min of N2 = 0
MULES: Solving for hs
DICPCG:  Solving for hs, Initial residual = 0.0961554, Final residual = 9.70977e-09, No Iterations 1
GAMG:  Solving for p_rgh, Initial residual = 0.0954235, Final residual = 0.000711351, No Iterations 5
diagonal:  Solving for rho, Initial residual = 0, Final residual = 0, No Iterations 0
time step continuity errors : sum local = 3.57879e-07, global = 3.45339e-08, cumulative = 9.2065e-08
GAMG:  Solving for p_rgh, Initial residual = 0.00227137, Final residual = 4.04248e-07, No Iterations 7
diagonal:  Solving for rho, Initial residual = 0, Final residual = 0, No Iterations 0
time step continuity errors : sum local = 2.10918e-10, global = 1.7429e-11, cumulative = 9.20824e-08
DILUPBiCG:  Solving for k, Initial residual = 0.154633, Final residual = 1.86035e-09, No Iterations 3

Evolving reactingOneDim for region panelRegion
diagonal:  Solving for rho, Initial residual = 0, Final residual = 0, No Iterations 0
diagonal:  Solving for Yv, Initial residual = 0, Final residual = 0, No Iterations 0
DICPCG:  Solving for T, Initial residual = 0.105717, Final residual = 1.64046e-18, No Iterations 1
pyrolysis min/max(T) = 293, 293

Pyrolysis: reactingOneDim
    Total gas mass produced  [kg] = 0
    Total solid mass lost    [kg] = 3.07914e-17
    Total pyrolysis gases  [kg/s] = 0
    Total heat release rate [J/s] = 0

ExecutionTime = 0.25 s  ClockTime = 0 s

Courant Number mean: 0.00487476 max: 0.055428
deltaT = 0.00568103
Time = 0.0295692

diagonal:  Solving for rho, Initial residual = 0, Final residual = 0, No Iterations 0
DILUPBiCG:  Solving for Ux, Initial residual = 0.0327961, Final residual = 1.448e-09, No Iterations 3
DILUPBiCG:  Solving for Uz, Initial residual = 0.0396622, Final residual = 9.9055e-10, No Iterations 3
MULES: Solving for O2
DICPCG:  Solving for O2, Initial residual = 0.0566956, Final residual = 6.15622e-10, No Iterations 1
max of O2 = 0.23301
min of O2 = 0.00757605
MULES: Solving for H2O
DICPCG:  Solving for H2O, Initial residual = 0.0169608, Final residual = 1.82638e-10, No Iterations 1
max of H2O = 0.00732647
min of H2O = -8.41818e-07
MULES: Solving for C3H8
DICPCG:  Solving for C3H8, Initial residual = 0.0195466, Final residual = 2.14647e-10, No Iterations 1
max of C3H8 = 0.964706
min of C3H8 = 0
MULES: Solving for CO2
DICPCG:  Solving for CO2, Initial residual = 0.0590787, Final residual = 6.38047e-10, No Iterations 1
max of CO2 = 0.0134233
min of CO2 = -1.5424e-06
max of N2 = 0.766992
min of N2 = 0
GAMG:  Solving for ILambda_0_0, Initial residual = 1, Final residual = 6.31559e-16, No Iterations 1
GAMG:  Solving for ILambda_1_0, Initial residual = 1, Final residual = 8.69077e-16, No Iterations 1
GAMG:  Solving for ILambda_2_0, Initial residual = 1, Final residual = 8.69077e-16, No Iterations 1
GAMG:  Solving for ILambda_3_0, Initial residual = 1, Final residual = 3.13837e-16, No Iterations 1
GAMG:  Solving for ILambda_4_0, Initial residual = 1, Final residual = 2.7472e-16, No Iterations 1
GAMG:  Solving for ILambda_5_0, Initial residual = 1, Final residual = 2.70376e-16, No Iterations 1
GAMG:  Solving for ILambda_6_0, Initial residual = 1, Final residual = 2.64306e-16, No Iterations 1
GAMG:  Solving for ILambda_7_0, Initial residual = 1, Final residual = 1.62622e-16, No Iterations 1
Radiation solver iter: 1
GAMG:  Solving for ILambda_0_0, Initial residual = 0.115576, Final residual = 2.24291e-16, No Iterations 1
GAMG:  Solving for ILambda_1_0, Initial residual = 0.138793, Final residual = 3.00501e-16, No Iterations 1
GAMG:  Solving for ILambda_2_0, Initial residual = 0.138793, Final residual = 3.00501e-16, No Iterations 1
GAMG:  Solving for ILambda_3_0, Initial residual = 0.115576, Final residual = 2.24973e-16, No Iterations 1
GAMG:  Solving for ILambda_4_0, Initial residual = 0.138333, Final residual = 2.94555e-17, No Iterations 1
GAMG:  Solving for ILambda_5_0, Initial residual = 0.184069, Final residual = 4.98914e-17, No Iterations 1
GAMG:  Solving for ILambda_6_0, Initial residual = 0.184069, Final residual = 3.90908e-17, No Iterations 1
GAMG:  Solving for ILambda_7_0, Initial residual = 0.138333, Final residual = 4.58485e-17, No Iterations 1
Radiation solver iter: 2
GAMG:  Solving for ILambda_0_0, Initial residual = 0.0647469, Final residual = 2.18633e-16, No Iterations 1
GAMG:  Solving for ILambda_1_0, Initial residual = 0.0738123, Final residual = 2.36501e-16, No Iterations 1
GAMG:  Solving for ILambda_2_0, Initial residual = 0.0738123, Final residual = 2.36501e-16, No Iterations 1
GAMG:  Solving for ILambda_3_0, Initial residual = 0.0647469, Final residual = 1.80828e-16, No Iterations 1
GAMG:  Solving for ILambda_4_0, Initial residual = 0.0644121, Final residual = 6.11157e-17, No Iterations 1
GAMG:  Solving for ILambda_5_0, Initial residual = 0.0830369, Final residual = 1.71659e-16, No Iterations 1
GAMG:  Solving for ILambda_6_0, Initial residual = 0.0830369, Final residual = 1.18958e-16, No Iterations 1
GAMG:  Solving for ILambda_7_0, Initial residual = 0.0644121, Final residual = 1.00343e-16, No Iterations 1
Radiation solver iter: 3
GAMG:  Solving for ILambda_0_0, Initial residual = 0.0258503, Final residual = 2.5773e-16, No Iterations 1
GAMG:  Solving for ILambda_1_0, Initial residual = 0.0279091, Final residual = 4.26142e-16, No Iterations 1
GAMG:  Solving for ILambda_2_0, Initial residual = 0.0279091, Final residual = 4.26142e-16, No Iterations 1
GAMG:  Solving for ILambda_3_0, Initial residual = 0.0258503, Final residual = 3.09843e-16, No Iterations 1
GAMG:  Solving for ILambda_4_0, Initial residual = 0.0189838, Final residual = 1.16134e-16, No Iterations 1
GAMG:  Solving for ILambda_5_0, Initial residual = 0.0235631, Final residual = 1.27757e-16, No Iterations 1
GAMG:  Solving for ILambda_6_0, Initial residual = 0.0235631, Final residual = 1.52038e-16, No Iterations 1
GAMG:  Solving for ILambda_7_0, Initial residual = 0.0189838, Final residual = 4.86171e-17, No Iterations 1
Radiation solver iter: 4
GAMG:  Solving for ILambda_0_0, Initial residual = 0.00707062, Final residual = 2.4664e-16, No Iterations 1
GAMG:  Solving for ILambda_1_0, Initial residual = 0.00797014, Final residual = 3.10718e-16, No Iterations 1
GAMG:  Solving for ILambda_2_0, Initial residual = 0.00797014, Final residual = 3.10718e-16, No Iterations 1
GAMG:  Solving for ILambda_3_0, Initial residual = 0.00707062, Final residual = 2.45614e-16, No Iterations 1
GAMG:  Solving for ILambda_4_0, Initial residual = 0.00842282, Final residual = 1.02633e-16, No Iterations 1
GAMG:  Solving for ILambda_5_0, Initial residual = 0.0105052, Final residual = 8.68993e-17, No Iterations 1
GAMG:  Solving for ILambda_6_0, Initial residual = 0.0105052, Final residual = 1.1358e-16, No Iterations 1
GAMG:  Solving for ILambda_7_0, Initial residual = 0.00842282, Final residual = 1.44253e-16, No Iterations 1
Radiation solver iter: 5
MULES: Solving for hs
DICPCG:  Solving for hs, Initial residual = 0.0804535, Final residual = 1.69251e-09, No Iterations 1
GAMG:  Solving for p_rgh, Initial residual = 0.0581472, Final residual = 0.00034567, No Iterations 5
diagonal:  Solving for rho, Initial residual = 0, Final residual = 0, No Iterations 0
time step continuity errors : sum local = 2.47144e-07, global = 1.98519e-08, cumulative = 1.11934e-07
GAMG:  Solving for p_rgh, Initial residual = 0.00167593, Final residual = 6.07894e-07, No Iterations 6
diagonal:  Solving for rho, Initial residual = 0, Final residual = 0, No Iterations 0
time step continuity errors : sum local = 4.30672e-10, global = 3.16778e-11, cumulative = 1.11966e-07
DILUPBiCG:  Solving for k, Initial residual = 0.133846, Final residual = 3.51345e-09, No Iterations 3

Evolving reactingOneDim for region panelRegion
diagonal:  Solving for rho, Initial residual = 0, Final residual = 0, No Iterations 0
diagonal:  Solving for Yv, Initial residual = 0, Final residual = 0, No Iterations 0
DICPCG:  Solving for T, Initial residual = 0.97895, Final residual = 2.83946e-18, No Iterations 1
pyrolysis min/max(T) = 293, 293.108

Pyrolysis: reactingOneDim
    Total gas mass produced  [kg] = 0
    Total solid mass lost    [kg] = 3.84893e-17
    Total pyrolysis gases  [kg/s] = 0
    Total heat release rate [J/s] = 0

ExecutionTime = 0.29 s  ClockTime = 0 s

Courant Number mean: 0.00604776 max: 0.0654691
deltaT = 0.00655503
Time = 0.0361242

diagonal:  Solving for rho, Initial residual = 0, Final residual = 0, No Iterations 0
DILUPBiCG:  Solving for Ux, Initial residual = 0.030814, Final residual = 1.97592e-09, No Iterations 3
DILUPBiCG:  Solving for Uz, Initial residual = 0.0217699, Final residual = 1.01536e-09, No Iterations 3
MULES: Solving for O2
DICPCG:  Solving for O2, Initial residual = 0.0502714, Final residual = 9.72987e-10, No Iterations 1
max of O2 = 0.23301
min of O2 = 0.00748289
MULES: Solving for H2O
DICPCG:  Solving for H2O, Initial residual = 0.0160881, Final residual = 3.47968e-10, No Iterations 1
max of H2O = 0.0101809
min of H2O = -8.4183e-07
MULES: Solving for C3H8
DICPCG:  Solving for C3H8, Initial residual = 0.0188371, Final residual = 3.67211e-10, No Iterations 1
max of C3H8 = 0.963854
min of C3H8 = 0
MULES: Solving for CO2
DICPCG:  Solving for CO2, Initial residual = 0.00126932, Final residual = 2.82889e-11, No Iterations 1
max of CO2 = 0.0186532
min of CO2 = -1.54239e-06
max of N2 = 0.766992
min of N2 = 0
MULES: Solving for hs
DICPCG:  Solving for hs, Initial residual = 0.0697275, Final residual = 2.40809e-09, No Iterations 1
GAMG:  Solving for p_rgh, Initial residual = 0.0141285, Final residual = 0.000133329, No Iterations 4
diagonal:  Solving for rho, Initial residual = 0, Final residual = 0, No Iterations 0
time step continuity errors : sum local = 1.24934e-07, global = -2.25625e-08, cumulative = 8.94036e-08
GAMG:  Solving for p_rgh, Initial residual = 0.000375055, Final residual = 4.43309e-07, No Iterations 6
diagonal:  Solving for rho, Initial residual = 0, Final residual = 0, No Iterations 0
time step continuity errors : sum local = 3.85395e-10, global = -2.86058e-11, cumulative = 8.93749e-08
DILUPBiCG:  Solving for k, Initial residual = 0.120617, Final residual = 6.17568e-09, No Iterations 3

Evolving reactingOneDim for region panelRegion
diagonal:  Solving for rho, Initial residual = 0, Final residual = 0, No Iterations 0
diagonal:  Solving for Yv, Initial residual = 0, Final residual = 0, No Iterations 0
DICPCG:  Solving for T, Initial residual = 0.229615, Final residual = 1.70653e-18, No Iterations 1
pyrolysis min/max(T) = 293, 293.118

Pyrolysis: reactingOneDim
    Total gas mass produced  [kg] = 0
    Total solid mass lost    [kg] = 4.64355e-17
    Total pyrolysis gases  [kg/s] = 0
    Total heat release rate [J/s] = 0

ExecutionTime = 0.3 s  ClockTime = 0 s

Courant Number mean: 0.00728943 max: 0.0752609
deltaT = 0.00780361
Time = 0.0439278

diagonal:  Solving for rho, Initial residual = 0, Final residual = 0, No Iterations 0
DILUPBiCG:  Solving for Ux, Initial residual = 0.0337325, Final residual = 5.06749e-09, No Iterations 3
DILUPBiCG:  Solving for Uz, Initial residual = 0.0268826, Final residual = 2.8166e-09, No Iterations 3
MULES: Solving for O2
DICPCG:  Solving for O2, Initial residual = 0.0438859, Final residual = 1.67841e-09, No Iterations 1
max of O2 = 0.23301
min of O2 = 0.0072456
MULES: Solving for H2O
DICPCG:  Solving for H2O, Initial residual = 0.00938054, Final residual = 4.10377e-10, No Iterations 1
max of H2O = 0.0138531
min of H2O = -8.41831e-07
MULES: Solving for C3H8
DICPCG:  Solving for C3H8, Initial residual = 0.0179142, Final residual = 6.85872e-10, No Iterations 1
max of C3H8 = 0.963176
min of C3H8 = 0
MULES: Solving for CO2
DICPCG:  Solving for CO2, Initial residual = 0.00636604, Final residual = 2.74444e-10, No Iterations 1
max of CO2 = 0.0253813
min of CO2 = -1.5424e-06
max of N2 = 0.766992
min of N2 = 0
MULES: Solving for hs
DICPCG:  Solving for hs, Initial residual = 0.0602355, Final residual = 2.91888e-09, No Iterations 1
GAMG:  Solving for p_rgh, Initial residual = 0.0311049, Final residual = 0.000260211, No Iterations 5
diagonal:  Solving for rho, Initial residual = 0, Final residual = 0, No Iterations 0
time step continuity errors : sum local = 3.28508e-07, global = 2.6341e-08, cumulative = 1.15716e-07
GAMG:  Solving for p_rgh, Initial residual = 0.00645898, Final residual = 8.71154e-07, No Iterations 7
diagonal:  Solving for rho, Initial residual = 0, Final residual = 0, No Iterations 0
time step continuity errors : sum local = 3.58747e-10, global = 2.43604e-11, cumulative = 1.1574e-07
DILUPBiCG:  Solving for k, Initial residual = 0.107766, Final residual = 2.40702e-11, No Iterations 4

Evolving reactingOneDim for region panelRegion
diagonal:  Solving for rho, Initial residual = 0, Final residual = 0, No Iterations 0
diagonal:  Solving for Yv, Initial residual = 0, Final residual = 0, No Iterations 0
DICPCG:  Solving for T, Initial residual = 0.144344, Final residual = 2.55693e-19, No Iterations 1
pyrolysis min/max(T) = 293, 293.13

Pyrolysis: reactingOneDim
    Total gas mass produced  [kg] = 0
    Total solid mass lost    [kg] = 5.50024e-17
    Total pyrolysis gases  [kg/s] = 0
    Total heat release rate [J/s] = 0

ExecutionTime = 0.32 s  ClockTime = 0 s

Courant Number mean: 0.00877239 max: 0.0840902
deltaT = 0.00918072
Time = 0.0531086

diagonal:  Solving for rho, Initial residual = 0, Final residual = 0, No Iterations 0
DILUPBiCG:  Solving for Ux, Initial residual = 0.0104121, Final residual = 4.95568e-09, No Iterations 3
DILUPBiCG:  Solving for Uz, Initial residual = 0.00976161, Final residual = 9.3982e-08, No Iterations 2
MULES: Solving for O2
DICPCG:  Solving for O2, Initial residual = 0.039075, Final residual = 2.89483e-09, No Iterations 1
max of O2 = 0.23301
min of O2 = 0.00678705
MULES: Solving for H2O
DICPCG:  Solving for H2O, Initial residual = 0.000520837, Final residual = 3.8826e-11, No Iterations 1
max of H2O = 0.0186127
min of H2O = -8.41833e-07
MULES: Solving for C3H8
DICPCG:  Solving for C3H8, Initial residual = 0.0169929, Final residual = 1.25109e-09, No Iterations 1
max of C3H8 = 0.962898
min of C3H8 = 0
MULES: Solving for CO2
DICPCG:  Solving for CO2, Initial residual = 0.00022607, Final residual = 3.98406e-12, No Iterations 1
max of CO2 = 0.0341019
min of CO2 = -1.5424e-06
max of N2 = 0.766992
min of N2 = 0
MULES: Solving for hs
DICPCG:  Solving for hs, Initial residual = 0.0533871, Final residual = 5.55007e-09, No Iterations 1
GAMG:  Solving for p_rgh, Initial residual = 0.0491528, Final residual = 0.000471885, No Iterations 4
diagonal:  Solving for rho, Initial residual = 0, Final residual = 0, No Iterations 0
time step continuity errors : sum local = 2.64819e-07, global = 1.72935e-08, cumulative = 1.33034e-07
GAMG:  Solving for p_rgh, Initial residual = 0.00597247, Final residual = 7.64766e-07, No Iterations 7
diagonal:  Solving for rho, Initial residual = 0, Final residual = 0, No Iterations 0
time step continuity errors : sum local = 1.59614e-10, global = 1.31785e-11, cumulative = 1.33047e-07
DILUPBiCG:  Solving for k, Initial residual = 0.0972663, Final residual = 4.52306e-11, No Iterations 4

Evolving reactingOneDim for region panelRegion
diagonal:  Solving for rho, Initial residual = 0, Final residual = 0, No Iterations 0
diagonal:  Solving for Yv, Initial residual = 0, Final residual = 0, No Iterations 0
DICPCG:  Solving for T, Initial residual = 0.111242, Final residual = 1.80952e-18, No Iterations 1
pyrolysis min/max(T) = 293, 293.145

Pyrolysis: reactingOneDim
    Total gas mass produced  [kg] = 0
    Total solid mass lost    [kg] = 6.19553e-17
    Total pyrolysis gases  [kg/s] = 0
    Total heat release rate [J/s] = 0

ExecutionTime = 0.33 s  ClockTime = 0 s

Courant Number mean: 0.0103375 max: 0.0917096
deltaT = 0.00979276
Time = 0.0629013

diagonal:  Solving for rho, Initial residual = 0, Final residual = 0, No Iterations 0
DILUPBiCG:  Solving for Ux, Initial residual = 0.00305946, Final residual = 9.21884e-12, No Iterations 4
DILUPBiCG:  Solving for Uz, Initial residual = 0.00459832, Final residual = 3.20218e-08, No Iterations 2
MULES: Solving for O2
DICPCG:  Solving for O2, Initial residual = 0.0356962, Final residual = 4.16091e-09, No Iterations 1
max of O2 = 0.23301
min of O2 = 0.00607342
MULES: Solving for H2O
DICPCG:  Solving for H2O, Initial residual = 0.000284189, Final residual = 3.30088e-11, No Iterations 1
max of H2O = 0.0248094
min of H2O = -8.41828e-07
MULES: Solving for C3H8
DICPCG:  Solving for C3H8, Initial residual = 0.0162477, Final residual = 1.86949e-09, No Iterations 1
max of C3H8 = 0.963067
min of C3H8 = 0
MULES: Solving for CO2
DICPCG:  Solving for CO2, Initial residual = 0.000171122, Final residual = 1.9442e-11, No Iterations 1
max of CO2 = 0.0454554
min of CO2 = -1.5424e-06
max of N2 = 0.766992
min of N2 = 0
MULES: Solving for hs
DICPCG:  Solving for hs, Initial residual = 0.0482191, Final residual = 6.92448e-09, No Iterations 1
GAMG:  Solving for p_rgh, Initial residual = 0.316643, Final residual = 0.00219607, No Iterations 5
diagonal:  Solving for rho, Initial residual = 0, Final residual = 0, No Iterations 0
time step continuity errors : sum local = 4.93601e-07, global = -4.20674e-08, cumulative = 9.09796e-08
GAMG:  Solving for p_rgh, Initial residual = 0.00302454, Final residual = 4.06912e-07, No Iterations 7
diagonal:  Solving for rho, Initial residual = 0, Final residual = 0, No Iterations 0
time step continuity errors : sum local = 6.67524e-10, global = -4.584e-11, cumulative = 9.09338e-08
DILUPBiCG:  Solving for k, Initial residual = 0.0927975, Final residual = 4.76168e-11, No Iterations 4

Evolving reactingOneDim for region panelRegion
diagonal:  Solving for rho, Initial residual = 0, Final residual = 0, No Iterations 0
diagonal:  Solving for Yv, Initial residual = 0, Final residual = 0, No Iterations 0
DICPCG:  Solving for T, Initial residual = 0.0857002, Final residual = 4.24988e-18, No Iterations 1
pyrolysis min/max(T) = 293, 293.16

Pyrolysis: reactingOneDim
    Total gas mass produced  [kg] = 0
    Total solid mass lost    [kg] = 6.92807e-17
    Total pyrolysis gases  [kg/s] = 0
    Total heat release rate [J/s] = 0

ExecutionTime = 0.35 s  ClockTime = 0 s

Courant Number mean: 0.0116313 max: 0.104434
deltaT = 0.00979276
Time = 0.0726941

diagonal:  Solving for rho, Initial residual = 0, Final residual = 0, No Iterations 0
DILUPBiCG:  Solving for Ux, Initial residual = 0.0331319, Final residual = 1.48855e-08, No Iterations 3
DILUPBiCG:  Solving for Uz, Initial residual = 0.0290942, Final residual = 1.02124e-08, No Iterations 3
MULES: Solving for O2
DICPCG:  Solving for O2, Initial residual = 0.025733, Final residual = 4.22215e-09, No Iterations 1
max of O2 = 0.23301
min of O2 = 0.00528192
MULES: Solving for H2O
DICPCG:  Solving for H2O, Initial residual = 0.000183297, Final residual = 9.32896e-12, No Iterations 1
max of H2O = 0.0307607
min of H2O = -8.41833e-07
MULES: Solving for C3H8
DICPCG:  Solving for C3H8, Initial residual = 0.0132036, Final residual = 2.10765e-09, No Iterations 1
max of C3H8 = 0.963543
min of C3H8 = 0
MULES: Solving for CO2
DICPCG:  Solving for CO2, Initial residual = 0.000178935, Final residual = 7.05027e-12, No Iterations 1
max of CO2 = 0.0563593
min of CO2 = -1.5424e-06
max of N2 = 0.766992
min of N2 = 0
MULES: Solving for hs
DICPCG:  Solving for hs, Initial residual = 0.0350029, Final residual = 7.23505e-09, No Iterations 1
GAMG:  Solving for p_rgh, Initial residual = 0.0680515, Final residual = 0.000366804, No Iterations 5
diagonal:  Solving for rho, Initial residual = 0, Final residual = 0, No Iterations 0
time step continuity errors : sum local = 6.32822e-07, global = 4.27755e-08, cumulative = 1.33709e-07
GAMG:  Solving for p_rgh, Initial residual = 0.0112766, Final residual = 7.01661e-07, No Iterations 8
diagonal:  Solving for rho, Initial residual = 0, Final residual = 0, No Iterations 0
time step continuity errors : sum local = 5.53446e-10, global = 3.65302e-11, cumulative = 1.33746e-07
DILUPBiCG:  Solving for k, Initial residual = 0.0729098, Final residual = 1.96378e-11, No Iterations 4

Evolving reactingOneDim for region panelRegion
diagonal:  Solving for rho, Initial residual = 0, Final residual = 0, No Iterations 0
diagonal:  Solving for Yv, Initial residual = 0, Final residual = 0, No Iterations 0
DICPCG:  Solving for T, Initial residual = 0.0683345, Final residual = 1.68785e-18, No Iterations 1
pyrolysis min/max(T) = 293, 293.178

Pyrolysis: reactingOneDim
    Total gas mass produced  [kg] = 0
    Total solid mass lost    [kg] = 7.67303e-17
    Total pyrolysis gases  [kg/s] = 0
    Total heat release rate [J/s] = 0

ExecutionTime = 0.37 s  ClockTime = 0 s

Courant Number mean: 0.0117384 max: 0.103692
deltaT = 0.00979276
Time = 0.0824868

diagonal:  Solving for rho, Initial residual = 0, Final residual = 0, No Iterations 0
DILUPBiCG:  Solving for Ux, Initial residual = 0.0121834, Final residual = 8.30237e-09, No Iterations 3
DILUPBiCG:  Solving for Uz, Initial residual = 0.0114012, Final residual = 3.03602e-09, No Iterations 3
MULES: Solving for O2
DICPCG:  Solving for O2, Initial residual = 0.0187901, Final residual = 3.67072e-09, No Iterations 1
max of O2 = 0.23301
min of O2 = 0.004539
MULES: Solving for H2O
DICPCG:  Solving for H2O, Initial residual = 0.000118167, Final residual = 6.74019e-12, No Iterations 1
max of H2O = 0.0357505
min of H2O = -8.41827e-07
MULES: Solving for C3H8
DICPCG:  Solving for C3H8, Initial residual = 0.010366, Final residual = 1.97176e-09, No Iterations 1
max of C3H8 = 0.964344
min of C3H8 = 0
MULES: Solving for CO2
DICPCG:  Solving for CO2, Initial residual = 9.65189e-05, Final residual = 5.45363e-12, No Iterations 1
max of CO2 = 0.0655016
min of CO2 = -1.5424e-06
max of N2 = 0.766992
min of N2 = 0
MULES: Solving for hs
DICPCG:  Solving for hs, Initial residual = 0.0255908, Final residual = 6.11868e-09, No Iterations 1
GAMG:  Solving for p_rgh, Initial residual = 0.126904, Final residual = 0.000931692, No Iterations 5
diagonal:  Solving for rho, Initial residual = 0, Final residual = 0, No Iterations 0
time step continuity errors : sum local = 7.63044e-07, global = 6.5967e-08, cumulative = 1.99713e-07
GAMG:  Solving for p_rgh, Initial residual = 0.00353437, Final residual = 3.8952e-07, No Iterations 7
diagonal:  Solving for rho, Initial residual = 0, Final residual = 0, No Iterations 0
time step continuity errors : sum local = 8.89372e-10, global = 6.40228e-11, cumulative = 1.99777e-07
DILUPBiCG:  Solving for k, Initial residual = 0.0515569, Final residual = 6.15989e-09, No Iterations 3

Evolving reactingOneDim for region panelRegion
diagonal:  Solving for rho, Initial residual = 0, Final residual = 0, No Iterations 0
diagonal:  Solving for Yv, Initial residual = 0, Final residual = 0, No Iterations 0
DICPCG:  Solving for T, Initial residual = 0.05854, Final residual = 1.18071e-18, No Iterations 1
pyrolysis min/max(T) = 293, 293.199

Pyrolysis: reactingOneDim
    Total gas mass produced  [kg] = 0
    Total solid mass lost    [kg] = 8.4304e-17
    Total pyrolysis gases  [kg/s] = 0
    Total heat release rate [J/s] = 0

ExecutionTime = 0.38 s  ClockTime = 0 s

Courant Number mean: 0.0109395 max: 0.0925266
deltaT = 0.00979276
Time = 0.0922796

diagonal:  Solving for rho, Initial residual = 0, Final residual = 0, No Iterations 0
DILUPBiCG:  Solving for Ux, Initial residual = 0.0464149, Final residual = 1.49624e-08, No Iterations 3
DILUPBiCG:  Solving for Uz, Initial residual = 0.0378946, Final residual = 7.38602e-09, No Iterations 3
MULES: Solving for O2
DICPCG:  Solving for O2, Initial residual = 0.0151054, Final residual = 3.14091e-09, No Iterations 1
max of O2 = 0.23301
min of O2 = 0.00389055
MULES: Solving for H2O
DICPCG:  Solving for H2O, Initial residual = 8.89205e-05, Final residual = 1.08731e-11, No Iterations 1
max of H2O = 0.03992
min of H2O = -8.41831e-07
MULES: Solving for C3H8
DICPCG:  Solving for C3H8, Initial residual = 0.00843784, Final residual = 1.74282e-09, No Iterations 1
max of C3H8 = 0.965285
min of C3H8 = 0
MULES: Solving for CO2
DICPCG:  Solving for CO2, Initial residual = 0.000134659, Final residual = 2.93609e-11, No Iterations 1
max of CO2 = 0.073141
min of CO2 = -1.5424e-06
max of N2 = 0.766992
min of N2 = 0
MULES: Solving for hs
DICPCG:  Solving for hs, Initial residual = 0.0204014, Final residual = 5.4459e-09, No Iterations 1
GAMG:  Solving for p_rgh, Initial residual = 0.0381013, Final residual = 0.000232143, No Iterations 4
diagonal:  Solving for rho, Initial residual = 0, Final residual = 0, No Iterations 0
time step continuity errors : sum local = 5.31401e-07, global = 3.16426e-08, cumulative = 2.31419e-07
GAMG:  Solving for p_rgh, Initial residual = 0.00133772, Final residual = 5.69965e-07, No Iterations 6
diagonal:  Solving for rho, Initial residual = 0, Final residual = 0, No Iterations 0
time step continuity errors : sum local = 1.67785e-09, global = 1.32266e-10, cumulative = 2.31552e-07
DILUPBiCG:  Solving for k, Initial residual = 0.0371497, Final residual = 2.40967e-09, No Iterations 3

Evolving reactingOneDim for region panelRegion
diagonal:  Solving for rho, Initial residual = 0, Final residual = 0, No Iterations 0
diagonal:  Solving for Yv, Initial residual = 0, Final residual = 0, No Iterations 0
DICPCG:  Solving for T, Initial residual = 0.052345, Final residual = 5.40219e-19, No Iterations 1
pyrolysis min/max(T) = 293, 293.223

Pyrolysis: reactingOneDim
    Total gas mass produced  [kg] = 0
    Total solid mass lost    [kg] = 9.18777e-17
    Total pyrolysis gases  [kg/s] = 0
    Total heat release rate [J/s] = 0

ExecutionTime = 0.4 s  ClockTime = 0 s

Courant Number mean: 0.00993476 max: 0.0809225
deltaT = 0.00979276
Time = 0.102072

diagonal:  Solving for rho, Initial residual = 0, Final residual = 0, No Iterations 0
DILUPBiCG:  Solving for Ux, Initial residual = 0.067132, Final residual = 1.45518e-08, No Iterations 3
DILUPBiCG:  Solving for Uz, Initial residual = 0.0531705, Final residual = 7.51828e-09, No Iterations 3
MULES: Solving for O2
DICPCG:  Solving for O2, Initial residual = 0.0126424, Final residual = 2.68515e-09, No Iterations 1
max of O2 = 0.23301
min of O2 = 0.00333691
MULES: Solving for H2O
DICPCG:  Solving for H2O, Initial residual = 5.26178e-05, Final residual = 8.03768e-12, No Iterations 1
max of H2O = 0.0433847
min of H2O = -8.41833e-07
MULES: Solving for C3H8
DICPCG:  Solving for C3H8, Initial residual = 0.00705487, Final residual = 1.53113e-09, No Iterations 1
max of C3H8 = 0.966221
min of C3H8 = 0
MULES: Solving for CO2
DICPCG:  Solving for CO2, Initial residual = 6.76262e-05, Final residual = 8.80405e-12, No Iterations 1
max of CO2 = 0.079489
min of CO2 = -1.5424e-06
max of N2 = 0.766992
min of N2 = 0
MULES: Solving for hs
DICPCG:  Solving for hs, Initial residual = 0.0169131, Final residual = 4.32189e-09, No Iterations 1
GAMG:  Solving for p_rgh, Initial residual = 0.0119859, Final residual = 4.39484e-05, No Iterations 5
diagonal:  Solving for rho, Initial residual = 0, Final residual = 0, No Iterations 0
time step continuity errors : sum local = 1.289e-07, global = -9.75998e-09, cumulative = 2.21792e-07
GAMG:  Solving for p_rgh, Initial residual = 0.000569354, Final residual = 7.92924e-07, No Iterations 5
diagonal:  Solving for rho, Initial residual = 0, Final residual = 0, No Iterations 0
time step continuity errors : sum local = 2.01213e-09, global = -1.63314e-10, cumulative = 2.21628e-07
DILUPBiCG:  Solving for k, Initial residual = 0.0286112, Final residual = 1.08588e-09, No Iterations 3

Evolving reactingOneDim for region panelRegion
diagonal:  Solving for rho, Initial residual = 0, Final residual = 0, No Iterations 0
diagonal:  Solving for Yv, Initial residual = 0, Final residual = 0, No Iterations 0
DICPCG:  Solving for T, Initial residual = 0.0479406, Final residual = 1.59319e-18, No Iterations 1
pyrolysis min/max(T) = 293, 293.249

Pyrolysis: reactingOneDim
    Total gas mass produced  [kg] = 0
    Total solid mass lost    [kg] = 9.94514e-17
    Total pyrolysis gases  [kg/s] = 0
    Total heat release rate [J/s] = 0

ExecutionTime = 0.41 s  ClockTime = 0 s

Courant Number mean: 0.00908945 max: 0.0722185
deltaT = 0.00979276
Time = 0.111865

diagonal:  Solving for rho, Initial residual = 0, Final residual = 0, No Iterations 0
DILUPBiCG:  Solving for Ux, Initial residual = 0.0612157, Final residual = 9.19714e-09, No Iterations 3
DILUPBiCG:  Solving for Uz, Initial residual = 0.0496034, Final residual = 5.25319e-09, No Iterations 3
MULES: Solving for O2
DICPCG:  Solving for O2, Initial residual = 0.0108116, Final residual = 2.25808e-09, No Iterations 1
max of O2 = 0.23301
min of O2 = 0.00286845
MULES: Solving for H2O
DICPCG:  Solving for H2O, Initial residual = 2.99949e-05, Final residual = 6.05331e-12, No Iterations 1
max of H2O = 0.0462349
min of H2O = -8.41833e-07
MULES: Solving for C3H8
DICPCG:  Solving for C3H8, Initial residual = 0.00600328, Final residual = 1.33813e-09, No Iterations 1
max of C3H8 = 0.967093
min of C3H8 = 0
MULES: Solving for CO2
DICPCG:  Solving for CO2, Initial residual = 2.24245e-05, Final residual = 4.51697e-12, No Iterations 1
max of CO2 = 0.0847111
min of CO2 = -1.5424e-06
max of N2 = 0.766992
min of N2 = 0
MULES: Solving for hs
DICPCG:  Solving for hs, Initial residual = 0.0143601, Final residual = 3.54674e-09, No Iterations 1
GAMG:  Solving for p_rgh, Initial residual = 0.0179291, Final residual = 0.000170003, No Iterations 4
diagonal:  Solving for rho, Initial residual = 0, Final residual = 0, No Iterations 0
time step continuity errors : sum local = 4.32667e-07, global = -2.40951e-08, cumulative = 1.97533e-07
GAMG:  Solving for p_rgh, Initial residual = 0.000830237, Final residual = 9.46815e-07, No Iterations 5
diagonal:  Solving for rho, Initial residual = 0, Final residual = 0, No Iterations 0
time step continuity errors : sum local = 1.99423e-09, global = -1.49926e-10, cumulative = 1.97383e-07
DILUPBiCG:  Solving for k, Initial residual = 0.0230931, Final residual = 7.37661e-10, No Iterations 3

Evolving reactingOneDim for region panelRegion
diagonal:  Solving for rho, Initial residual = 0, Final residual = 0, No Iterations 0
diagonal:  Solving for Yv, Initial residual = 0, Final residual = 0, No Iterations 0
DICPCG:  Solving for T, Initial residual = 0.0446901, Final residual = 3.05201e-18, No Iterations 1
pyrolysis min/max(T) = 293, 293.277

Pyrolysis: reactingOneDim
    Total gas mass produced  [kg] = 0
    Total solid mass lost    [kg] = 1.07025e-16
    Total pyrolysis gases  [kg/s] = 0
    Total heat release rate [J/s] = 0

ExecutionTime = 0.43 s  ClockTime = 0 s

Courant Number mean: 0.00841753 max: 0.0654042
deltaT = 0.00979276
Time = 0.121658

diagonal:  Solving for rho, Initial residual = 0, Final residual = 0, No Iterations 0
DILUPBiCG:  Solving for Ux, Initial residual = 0.05184, Final residual = 5.72532e-09, No Iterations 3
DILUPBiCG:  Solving for Uz, Initial residual = 0.042869, Final residual = 3.66972e-09, No Iterations 3
MULES: Solving for O2
DICPCG:  Solving for O2, Initial residual = 0.00937505, Final residual = 1.85823e-09, No Iterations 1
max of O2 = 0.23301
min of O2 = 0.00247181
MULES: Solving for H2O
DICPCG:  Solving for H2O, Initial residual = 3.99897e-05, Final residual = 8.61671e-12, No Iterations 1
max of H2O = 0.0485372
min of H2O = -8.41831e-07
MULES: Solving for C3H8
DICPCG:  Solving for C3H8, Initial residual = 0.0051725, Final residual = 1.16195e-09, No Iterations 1
max of C3H8 = 0.967887
min of C3H8 = 0
MULES: Solving for CO2
DICPCG:  Solving for CO2, Initial residual = 5.10249e-05, Final residual = 1.08726e-11, No Iterations 1
max of CO2 = 0.0889294
min of CO2 = -1.5424e-06
max of N2 = 0.766992
min of N2 = 0
GAMG:  Solving for ILambda_0_0, Initial residual = 0.266979, Final residual = 4.58453e-16, No Iterations 1
GAMG:  Solving for ILambda_1_0, Initial residual = 0.264313, Final residual = 3.5651e-16, No Iterations 1
GAMG:  Solving for ILambda_2_0, Initial residual = 0.264313, Final residual = 3.5651e-16, No Iterations 1
GAMG:  Solving for ILambda_3_0, Initial residual = 0.266979, Final residual = 3.54913e-16, No Iterations 1
GAMG:  Solving for ILambda_4_0, Initial residual = 0.450022, Final residual = 3.73508e-17, No Iterations 1
GAMG:  Solving for ILambda_5_0, Initial residual = 0.450371, Final residual = 6.56246e-17, No Iterations 1
GAMG:  Solving for ILambda_6_0, Initial residual = 0.450371, Final residual = 1.22399e-16, No Iterations 1
GAMG:  Solving for ILambda_7_0, Initial residual = 0.450022, Final residual = 1.06587e-16, No Iterations 1
Radiation solver iter: 1
GAMG:  Solving for ILambda_0_0, Initial residual = 0.114692, Final residual = 3.18021e-16, No Iterations 1
GAMG:  Solving for ILambda_1_0, Initial residual = 0.122854, Final residual = 5.36942e-16, No Iterations 1
GAMG:  Solving for ILambda_2_0, Initial residual = 0.122854, Final residual = 5.36942e-16, No Iterations 1
GAMG:  Solving for ILambda_3_0, Initial residual = 0.114692, Final residual = 3.35135e-16, No Iterations 1
GAMG:  Solving for ILambda_4_0, Initial residual = 0.12969, Final residual = 2.88386e-17, No Iterations 1
GAMG:  Solving for ILambda_5_0, Initial residual = 0.130028, Final residual = 1.02739e-16, No Iterations 1
GAMG:  Solving for ILambda_6_0, Initial residual = 0.130028, Final residual = 1.18382e-16, No Iterations 1
GAMG:  Solving for ILambda_7_0, Initial residual = 0.12969, Final residual = 1.43227e-16, No Iterations 1
Radiation solver iter: 2
GAMG:  Solving for ILambda_0_0, Initial residual = 0.0639038, Final residual = 4.2026e-16, No Iterations 1
GAMG:  Solving for ILambda_1_0, Initial residual = 0.0601658, Final residual = 3.547e-16, No Iterations 1
GAMG:  Solving for ILambda_2_0, Initial residual = 0.0601658, Final residual = 3.547e-16, No Iterations 1
GAMG:  Solving for ILambda_3_0, Initial residual = 0.0639038, Final residual = 4.87765e-16, No Iterations 1
GAMG:  Solving for ILambda_4_0, Initial residual = 0.0608927, Final residual = 7.67105e-17, No Iterations 1
GAMG:  Solving for ILambda_5_0, Initial residual = 0.0610447, Final residual = 9.41364e-17, No Iterations 1
GAMG:  Solving for ILambda_6_0, Initial residual = 0.0610447, Final residual = 1.10825e-16, No Iterations 1
GAMG:  Solving for ILambda_7_0, Initial residual = 0.0608927, Final residual = 1.38369e-16, No Iterations 1
Radiation solver iter: 3
GAMG:  Solving for ILambda_0_0, Initial residual = 0.0273223, Final residual = 3.30502e-16, No Iterations 1
GAMG:  Solving for ILambda_1_0, Initial residual = 0.0257286, Final residual = 5.03982e-16, No Iterations 1
GAMG:  Solving for ILambda_2_0, Initial residual = 0.0257286, Final residual = 5.03982e-16, No Iterations 1
GAMG:  Solving for ILambda_3_0, Initial residual = 0.0273223, Final residual = 3.56046e-16, No Iterations 1
GAMG:  Solving for ILambda_4_0, Initial residual = 0.0209527, Final residual = 4.80322e-17, No Iterations 1
GAMG:  Solving for ILambda_5_0, Initial residual = 0.0210301, Final residual = 1.17251e-16, No Iterations 1
GAMG:  Solving for ILambda_6_0, Initial residual = 0.0210301, Final residual = 1.39116e-16, No Iterations 1
GAMG:  Solving for ILambda_7_0, Initial residual = 0.0209527, Final residual = 2.98041e-17, No Iterations 1
Radiation solver iter: 4
GAMG:  Solving for ILambda_0_0, Initial residual = 0.00801751, Final residual = 4.0359e-16, No Iterations 1
GAMG:  Solving for ILambda_1_0, Initial residual = 0.0075547, Final residual = 4.95461e-16, No Iterations 1
GAMG:  Solving for ILambda_2_0, Initial residual = 0.0075547, Final residual = 4.95461e-16, No Iterations 1
GAMG:  Solving for ILambda_3_0, Initial residual = 0.00801751, Final residual = 4.82232e-16, No Iterations 1
GAMG:  Solving for ILambda_4_0, Initial residual = 0.00963292, Final residual = 9.37656e-17, No Iterations 1
GAMG:  Solving for ILambda_5_0, Initial residual = 0.00966741, Final residual = 8.19078e-17, No Iterations 1
GAMG:  Solving for ILambda_6_0, Initial residual = 0.00966741, Final residual = 7.74175e-17, No Iterations 1
GAMG:  Solving for ILambda_7_0, Initial residual = 0.00963292, Final residual = 9.32787e-17, No Iterations 1
Radiation solver iter: 5
MULES: Solving for hs
DICPCG:  Solving for hs, Initial residual = 0.012382, Final residual = 2.90235e-09, No Iterations 1
GAMG:  Solving for p_rgh, Initial residual = 0.0167952, Final residual = 0.000156754, No Iterations 4
diagonal:  Solving for rho, Initial residual = 0, Final residual = 0, No Iterations 0
time step continuity errors : sum local = 3.30937e-07, global = -1.38503e-08, cumulative = 1.83533e-07
GAMG:  Solving for p_rgh, Initial residual = 0.000616503, Final residual = 9.13137e-07, No Iterations 5
diagonal:  Solving for rho, Initial residual = 0, Final residual = 0, No Iterations 0
time step continuity errors : sum local = 1.70841e-09, global = -1.30792e-10, cumulative = 1.83402e-07
DILUPBiCG:  Solving for k, Initial residual = 0.0193744, Final residual = 4.39488e-10, No Iterations 3

Evolving reactingOneDim for region panelRegion
diagonal:  Solving for rho, Initial residual = 0, Final residual = 0, No Iterations 0
diagonal:  Solving for Yv, Initial residual = 0, Final residual = 0, No Iterations 0
DICPCG:  Solving for T, Initial residual = 0.734169, Final residual = 2.99213e-18, No Iterations 1
pyrolysis min/max(T) = 293, 305.252

Pyrolysis: reactingOneDim
    Total gas mass produced  [kg] = 0
    Total solid mass lost    [kg] = 1.14599e-16
    Total pyrolysis gases  [kg/s] = 0
    Total heat release rate [J/s] = 0

ExecutionTime = 0.46 s  ClockTime = 0 s

Courant Number mean: 0.00785081 max: 0.0609767
deltaT = 0.00979276
Time = 0.131451

diagonal:  Solving for rho, Initial residual = 0, Final residual = 0, No Iterations 0
DILUPBiCG:  Solving for Ux, Initial residual = 0.047094, Final residual = 3.86146e-09, No Iterations 3
DILUPBiCG:  Solving for Uz, Initial residual = 0.0384311, Final residual = 2.60713e-09, No Iterations 3
MULES: Solving for O2
DICPCG:  Solving for O2, Initial residual = 0.00820485, Final residual = 1.50798e-09, No Iterations 1
max of O2 = 0.23301
min of O2 = 0.00213455
MULES: Solving for H2O
DICPCG:  Solving for H2O, Initial residual = 5.4694e-05, Final residual = 1.38621e-11, No Iterations 1
max of H2O = 0.0503664
min of H2O = -8.41832e-07
MULES: Solving for C3H8
DICPCG:  Solving for C3H8, Initial residual = 0.00449577, Final residual = 1.002e-09, No Iterations 1
max of C3H8 = 0.968614
min of C3H8 = 0
MULES: Solving for CO2
DICPCG:  Solving for CO2, Initial residual = 2.63775e-05, Final residual = 6.61599e-12, No Iterations 1
max of CO2 = 0.0922808
min of CO2 = -1.5424e-06
max of N2 = 0.766992
min of N2 = 0
MULES: Solving for hs
DICPCG:  Solving for hs, Initial residual = 0.010785, Final residual = 2.31717e-09, No Iterations 1
GAMG:  Solving for p_rgh, Initial residual = 0.0212552, Final residual = 0.00010487, No Iterations 4
diagonal:  Solving for rho, Initial residual = 0, Final residual = 0, No Iterations 0
time step continuity errors : sum local = 1.97048e-07, global = -9.84186e-09, cumulative = 1.7356e-07
GAMG:  Solving for p_rgh, Initial residual = 0.000592422, Final residual = 7.28812e-07, No Iterations 5
diagonal:  Solving for rho, Initial residual = 0, Final residual = 0, No Iterations 0
time step continuity errors : sum local = 1.24386e-09, global = -9.48324e-11, cumulative = 1.73465e-07
DILUPBiCG:  Solving for k, Initial residual = 0.016634, Final residual = 2.801e-10, No Iterations 3

Evolving reactingOneDim for region panelRegion
diagonal:  Solving for rho, Initial residual = 0, Final residual = 0, No Iterations 0
diagonal:  Solving for Yv, Initial residual = 0, Final residual = 0, No Iterations 0
DICPCG:  Solving for T, Initial residual = 0.193799, Final residual = 1.69452e-18, No Iterations 1
pyrolysis min/max(T) = 293, 306.587

Pyrolysis: reactingOneDim
    Total gas mass produced  [kg] = 0
    Total solid mass lost    [kg] = 1.22172e-16
    Total pyrolysis gases  [kg/s] = 0
    Total heat release rate [J/s] = 0

ExecutionTime = 0.48 s  ClockTime = 0 s

Courant Number mean: 0.00737537 max: 0.0584942
deltaT = 0.00979276
Time = 0.141243

diagonal:  Solving for rho, Initial residual = 0, Final residual = 0, No Iterations 0
DILUPBiCG:  Solving for Ux, Initial residual = 0.0431449, Final residual = 2.65565e-09, No Iterations 3
DILUPBiCG:  Solving for Uz, Initial residual = 0.0357817, Final residual = 2.01799e-09, No Iterations 3
MULES: Solving for O2
DICPCG:  Solving for O2, Initial residual = 0.00722902, Final residual = 1.20372e-09, No Iterations 1
max of O2 = 0.23301
min of O2 = 0.00184667
MULES: Solving for H2O
DICPCG:  Solving for H2O, Initial residual = 2.73919e-05, Final residual = 6.20139e-12, No Iterations 1
max of H2O = 0.0518012
min of H2O = -8.41833e-07
MULES: Solving for C3H8
DICPCG:  Solving for C3H8, Initial residual = 0.0039355, Final residual = 8.73105e-10, No Iterations 1
max of C3H8 = 0.96928
min of C3H8 = 0
MULES: Solving for CO2
DICPCG:  Solving for CO2, Initial residual = 6.98724e-05, Final residual = 1.33252e-11, No Iterations 1
max of CO2 = 0.0949096
min of CO2 = -1.5424e-06
max of N2 = 0.766992
min of N2 = 0
MULES: Solving for hs
DICPCG:  Solving for hs, Initial residual = 0.00946575, Final residual = 1.82722e-09, No Iterations 1
GAMG:  Solving for p_rgh, Initial residual = 0.020465, Final residual = 7.34458e-05, No Iterations 4
diagonal:  Solving for rho, Initial residual = 0, Final residual = 0, No Iterations 0
time step continuity errors : sum local = 1.26009e-07, global = -5.69326e-09, cumulative = 1.67772e-07
GAMG:  Solving for p_rgh, Initial residual = 0.000540132, Final residual = 5.68667e-07, No Iterations 5
diagonal:  Solving for rho, Initial residual = 0, Final residual = 0, No Iterations 0
time step continuity errors : sum local = 9.19828e-10, global = -6.94617e-11, cumulative = 1.67703e-07
DILUPBiCG:  Solving for k, Initial residual = 0.0145643, Final residual = 1.91669e-10, No Iterations 3

Evolving reactingOneDim for region panelRegion
diagonal:  Solving for rho, Initial residual = 0, Final residual = 0, No Iterations 0
diagonal:  Solving for Yv, Initial residual = 0, Final residual = 0, No Iterations 0
DICPCG:  Solving for T, Initial residual = 0.11204, Final residual = 1.59087e-17, No Iterations 1
pyrolysis min/max(T) = 293, 307.853

Pyrolysis: reactingOneDim
    Total gas mass produced  [kg] = 0
    Total solid mass lost    [kg] = 1.29746e-16
    Total pyrolysis gases  [kg/s] = 0
    Total heat release rate [J/s] = 0

ExecutionTime = 0.49 s  ClockTime = 0 s

Courant Number mean: 0.00695059 max: 0.0563702
deltaT = 0.00979276
Time = 0.151036

diagonal:  Solving for rho, Initial residual = 0, Final residual = 0, No Iterations 0
DILUPBiCG:  Solving for Ux, Initial residual = 0.0414784, Final residual = 1.92374e-09, No Iterations 3
DILUPBiCG:  Solving for Uz, Initial residual = 0.034797, Final residual = 1.61467e-09, No Iterations 3
MULES: Solving for O2
DICPCG:  Solving for O2, Initial residual = 0.00643473, Final residual = 9.58036e-10, No Iterations 1
max of O2 = 0.23301
min of O2 = 0.00160084
MULES: Solving for H2O
DICPCG:  Solving for H2O, Initial residual = 2.63468e-05, Final residual = 8.00839e-12, No Iterations 1
max of H2O = 0.0529049
min of H2O = -8.41833e-07
MULES: Solving for C3H8
DICPCG:  Solving for C3H8, Initial residual = 0.00347817, Final residual = 7.66067e-10, No Iterations 1
max of C3H8 = 0.969886
min of C3H8 = 0
MULES: Solving for CO2
DICPCG:  Solving for CO2, Initial residual = 2.09223e-05, Final residual = 6.65042e-12, No Iterations 1
max of CO2 = 0.0969318
min of CO2 = -1.5424e-06
max of N2 = 0.766992
min of N2 = 0
MULES: Solving for hs
DICPCG:  Solving for hs, Initial residual = 0.00839741, Final residual = 1.4357e-09, No Iterations 1
GAMG:  Solving for p_rgh, Initial residual = 0.018136, Final residual = 7.16206e-05, No Iterations 4
diagonal:  Solving for rho, Initial residual = 0, Final residual = 0, No Iterations 0
time step continuity errors : sum local = 1.1605e-07, global = -6.03196e-09, cumulative = 1.61671e-07
GAMG:  Solving for p_rgh, Initial residual = 0.000433502, Final residual = 5.51428e-07, No Iterations 5
diagonal:  Solving for rho, Initial residual = 0, Final residual = 0, No Iterations 0
time step continuity errors : sum local = 8.34752e-10, global = -6.29022e-11, cumulative = 1.61608e-07
DILUPBiCG:  Solving for k, Initial residual = 0.0130772, Final residual = 1.31318e-10, No Iterations 3

Evolving reactingOneDim for region panelRegion
diagonal:  Solving for rho, Initial residual = 0, Final residual = 0, No Iterations 0
diagonal:  Solving for Yv, Initial residual = 0, Final residual = 0, No Iterations 0
DICPCG:  Solving for T, Initial residual = 0.0791221, Final residual = 4.46806e-18, No Iterations 1
pyrolysis min/max(T) = 293, 309.059

Pyrolysis: reactingOneDim
    Total gas mass produced  [kg] = 0
    Total solid mass lost    [kg] = 1.3732e-16
    Total pyrolysis gases  [kg/s] = 0
    Total heat release rate [J/s] = 0

ExecutionTime = 0.51 s  ClockTime = 0 s

Courant Number mean: 0.00657518 max: 0.0546069
deltaT = 0.00979276
Time = 0.160829

diagonal:  Solving for rho, Initial residual = 0, Final residual = 0, No Iterations 0
DILUPBiCG:  Solving for Ux, Initial residual = 0.0393613, Final residual = 1.38368e-09, No Iterations 3
DILUPBiCG:  Solving for Uz, Initial residual = 0.0329025, Final residual = 1.25052e-09, No Iterations 3
MULES: Solving for O2
DICPCG:  Solving for O2, Initial residual = 0.00577727, Final residual = 9.17341e-10, No Iterations 1
max of O2 = 0.23301
min of O2 = 0.00138948
MULES: Solving for H2O
DICPCG:  Solving for H2O, Initial residual = 1.90379e-05, Final residual = 5.93586e-12, No Iterations 1
max of H2O = 0.0537167
min of H2O = -8.41833e-07
MULES: Solving for C3H8
DICPCG:  Solving for C3H8, Initial residual = 0.00310113, Final residual = 6.78882e-10, No Iterations 1
max of C3H8 = 0.970439
min of C3H8 = 0
MULES: Solving for CO2
DICPCG:  Solving for CO2, Initial residual = 2.00229e-05, Final residual = 3.40333e-12, No Iterations 1
max of CO2 = 0.0984192
min of CO2 = -1.5424e-06
max of N2 = 0.766992
min of N2 = 0
MULES: Solving for hs
DICPCG:  Solving for hs, Initial residual = 0.00751946, Final residual = 1.40575e-09, No Iterations 1
GAMG:  Solving for p_rgh, Initial residual = 0.0175964, Final residual = 6.27648e-05, No Iterations 4
diagonal:  Solving for rho, Initial residual = 0, Final residual = 0, No Iterations 0
time step continuity errors : sum local = 9.49058e-08, global = -5.13198e-09, cumulative = 1.56476e-07
GAMG:  Solving for p_rgh, Initial residual = 0.000388485, Final residual = 5.13532e-07, No Iterations 5
diagonal:  Solving for rho, Initial residual = 0, Final residual = 0, No Iterations 0
time step continuity errors : sum local = 7.25949e-10, global = -5.4434e-11, cumulative = 1.56421e-07
DILUPBiCG:  Solving for k, Initial residual = 0.011941, Final residual = 9.33893e-11, No Iterations 3

Evolving reactingOneDim for region panelRegion
diagonal:  Solving for rho, Initial residual = 0, Final residual = 0, No Iterations 0
diagonal:  Solving for Yv, Initial residual = 0, Final residual = 0, No Iterations 0
DICPCG:  Solving for T, Initial residual = 0.0613165, Final residual = 7.48127e-19, No Iterations 1
pyrolysis min/max(T) = 293, 310.212

Pyrolysis: reactingOneDim
    Total gas mass produced  [kg] = 0
    Total solid mass lost    [kg] = 1.44894e-16
    Total pyrolysis gases  [kg/s] = 0
    Total heat release rate [J/s] = 0

ExecutionTime = 0.52 s  ClockTime = 0 s

Courant Number mean: 0.0062534 max: 0.0531865
deltaT = 0.00979276
Time = 0.170622

diagonal:  Solving for rho, Initial residual = 0, Final residual = 0, No Iterations 0
DILUPBiCG:  Solving for Ux, Initial residual = 0.0373522, Final residual = 1.01006e-09, No Iterations 3
DILUPBiCG:  Solving for Uz, Initial residual = 0.0309219, Final residual = 9.58696e-10, No Iterations 3
MULES: Solving for O2
DICPCG:  Solving for O2, Initial residual = 0.00522563, Final residual = 1.06347e-09, No Iterations 1
max of O2 = 0.23301
min of O2 = 0.00120683
MULES: Solving for H2O
DICPCG:  Solving for H2O, Initial residual = 1.69202e-05, Final residual = 5.65669e-12, No Iterations 1
max of H2O = 0.0542796
min of H2O = -8.41832e-07
MULES: Solving for C3H8
DICPCG:  Solving for C3H8, Initial residual = 0.0027877, Final residual = 6.10533e-10, No Iterations 1
max of C3H8 = 0.970945
min of C3H8 = 0
MULES: Solving for CO2
DICPCG:  Solving for CO2, Initial residual = 1.45235e-05, Final residual = 5.22456e-12, No Iterations 1
max of CO2 = 0.0994506
min of CO2 = -1.5424e-06
max of N2 = 0.766992
min of N2 = 0
MULES: Solving for hs
DICPCG:  Solving for hs, Initial residual = 0.00679002, Final residual = 1.66849e-09, No Iterations 1
GAMG:  Solving for p_rgh, Initial residual = 0.0193515, Final residual = 9.5223e-05, No Iterations 4
diagonal:  Solving for rho, Initial residual = 0, Final residual = 0, No Iterations 0
time step continuity errors : sum local = 1.34535e-07, global = -8.36262e-09, cumulative = 1.48059e-07
GAMG:  Solving for p_rgh, Initial residual = 0.000427196, Final residual = 6.92336e-07, No Iterations 5
diagonal:  Solving for rho, Initial residual = 0, Final residual = 0, No Iterations 0
time step continuity errors : sum local = 8.67452e-10, global = -6.54084e-11, cumulative = 1.47993e-07
DILUPBiCG:  Solving for k, Initial residual = 0.0111369, Final residual = 7.0401e-11, No Iterations 3

Evolving reactingOneDim for region panelRegion
diagonal:  Solving for rho, Initial residual = 0, Final residual = 0, No Iterations 0
diagonal:  Solving for Yv, Initial residual = 0, Final residual = 0, No Iterations 0
DICPCG:  Solving for T, Initial residual = 0.0501436, Final residual = 8.2221e-19, No Iterations 1
pyrolysis min/max(T) = 293, 311.317

Pyrolysis: reactingOneDim
    Total gas mass produced  [kg] = 0
    Total solid mass lost    [kg] = 1.52467e-16
    Total pyrolysis gases  [kg/s] = 0
    Total heat release rate [J/s] = 0

ExecutionTime = 0.54 s  ClockTime = 0 s

Courant Number mean: 0.00599918 max: 0.0521603
deltaT = 0.00979276
Time = 0.180414

diagonal:  Solving for rho, Initial residual = 0, Final residual = 0, No Iterations 0
DILUPBiCG:  Solving for Ux, Initial residual = 0.0325567, Final residual = 6.95599e-10, No Iterations 3
DILUPBiCG:  Solving for Uz, Initial residual = 0.0261657, Final residual = 6.69209e-10, No Iterations 3
MULES: Solving for O2
DICPCG:  Solving for O2, Initial residual = 0.0047657, Final residual = 1.22516e-09, No Iterations 1
max of O2 = 0.23301
min of O2 = 0.00104844
MULES: Solving for H2O
DICPCG:  Solving for H2O, Initial residual = 1.64827e-05, Final residual = 5.92919e-12, No Iterations 1
max of H2O = 0.0546305
min of H2O = -8.41833e-07
MULES: Solving for C3H8
DICPCG:  Solving for C3H8, Initial residual = 0.00252584, Final residual = 5.82378e-10, No Iterations 1
max of C3H8 = 0.971406
min of C3H8 = 0
MULES: Solving for CO2
DICPCG:  Solving for CO2, Initial residual = 9.65556e-06, Final residual = 2.76006e-12, No Iterations 1
max of CO2 = 0.100094
min of CO2 = -1.5424e-06
max of N2 = 0.766992
min of N2 = 0
MULES: Solving for hs
DICPCG:  Solving for hs, Initial residual = 0.00618336, Final residual = 1.97641e-09, No Iterations 1
GAMG:  Solving for p_rgh, Initial residual = 0.0206748, Final residual = 8.17637e-05, No Iterations 4
diagonal:  Solving for rho, Initial residual = 0, Final residual = 0, No Iterations 0
time step continuity errors : sum local = 1.03497e-07, global = -5.60936e-09, cumulative = 1.42384e-07
GAMG:  Solving for p_rgh, Initial residual = 0.00044062, Final residual = 6.26413e-07, No Iterations 5
diagonal:  Solving for rho, Initial residual = 0, Final residual = 0, No Iterations 0
time step continuity errors : sum local = 7.29548e-10, global = -5.54328e-11, cumulative = 1.42329e-07
DILUPBiCG:  Solving for k, Initial residual = 0.010674, Final residual = 5.67816e-11, No Iterations 3

Evolving reactingOneDim for region panelRegion
diagonal:  Solving for rho, Initial residual = 0, Final residual = 0, No Iterations 0
diagonal:  Solving for Yv, Initial residual = 0, Final residual = 0, No Iterations 0
DICPCG:  Solving for T, Initial residual = 0.0424464, Final residual = 1.93001e-18, No Iterations 1
pyrolysis min/max(T) = 293, 312.381

Pyrolysis: reactingOneDim
    Total gas mass produced  [kg] = 0
    Total solid mass lost    [kg] = 1.60041e-16
    Total pyrolysis gases  [kg/s] = 0
    Total heat release rate [J/s] = 0

ExecutionTime = 0.55 s  ClockTime = 0 s

Courant Number mean: 0.00579387 max: 0.0515862
deltaT = 0.00979276
Time = 0.190207

diagonal:  Solving for rho, Initial residual = 0, Final residual = 0, No Iterations 0
DILUPBiCG:  Solving for Ux, Initial residual = 0.0290431, Final residual = 5.12618e-10, No Iterations 3
DILUPBiCG:  Solving for Uz, Initial residual = 0.0234338, Final residual = 4.98394e-10, No Iterations 3
MULES: Solving for O2
DICPCG:  Solving for O2, Initial residual = 0.00438313, Final residual = 1.39683e-09, No Iterations 1
max of O2 = 0.23301
min of O2 = 0.000913774
MULES: Solving for H2O
DICPCG:  Solving for H2O, Initial residual = 1.76099e-05, Final residual = 6.76174e-12, No Iterations 1
max of H2O = 0.0548032
min of H2O = -8.41833e-07
MULES: Solving for C3H8
DICPCG:  Solving for C3H8, Initial residual = 0.00230731, Final residual = 5.84341e-10, No Iterations 1
max of C3H8 = 0.971828
min of C3H8 = 0
MULES: Solving for CO2
DICPCG:  Solving for CO2, Initial residual = 1.80186e-05, Final residual = 7.01912e-12, No Iterations 1
max of CO2 = 0.10041
min of CO2 = -1.5424e-06
max of N2 = 0.766992
min of N2 = 0
MULES: Solving for hs
DICPCG:  Solving for hs, Initial residual = 0.0056827, Final residual = 2.26138e-09, No Iterations 1
GAMG:  Solving for p_rgh, Initial residual = 0.0242477, Final residual = 8.19898e-05, No Iterations 5
diagonal:  Solving for rho, Initial residual = 0, Final residual = 0, No Iterations 0
time step continuity errors : sum local = 9.71786e-08, global = -8.71223e-09, cumulative = 1.33616e-07
GAMG:  Solving for p_rgh, Initial residual = 0.000591269, Final residual = 9.89281e-07, No Iterations 5
diagonal:  Solving for rho, Initial residual = 0, Final residual = 0, No Iterations 0
time step continuity errors : sum local = 8.64261e-10, global = -6.85972e-11, cumulative = 1.33548e-07
DILUPBiCG:  Solving for k, Initial residual = 0.0105338, Final residual = 9.28914e-09, No Iterations 2

Evolving reactingOneDim for region panelRegion
diagonal:  Solving for rho, Initial residual = 0, Final residual = 0, No Iterations 0
diagonal:  Solving for Yv, Initial residual = 0, Final residual = 0, No Iterations 0
DICPCG:  Solving for T, Initial residual = 0.0368413, Final residual = 1.47033e-18, No Iterations 1
pyrolysis min/max(T) = 293, 313.411

Pyrolysis: reactingOneDim
    Total gas mass produced  [kg] = 0
[...]
DILUPBiCG:  Solving for Uz, Initial residual = 0.0231797, Final residual = 4.62632e-08, No Iterations 4
MULES: Solving for O2
DICPCG:  Solving for O2, Initial residual = 0.00205401, Final residual = 3.27257e-10, No Iterations 2
max of O2 = 0.23301
min of O2 = 0.000321357
MULES: Solving for H2O
DICPCG:  Solving for H2O, Initial residual = 0.0256076, Final residual = 3.45579e-17, No Iterations 1
max of H2O = 0.0965229
min of H2O = -8.41807e-07
MULES: Solving for C3H8
DICPCG:  Solving for C3H8, Initial residual = 0.00261289, Final residual = 6.93058e-10, No Iterations 2
max of C3H8 = 0.906751
min of C3H8 = 0
MULES: Solving for CO2
DICPCG:  Solving for CO2, Initial residual = 0.0256002, Final residual = 2.19765e-17, No Iterations 1
max of CO2 = 0.176849
min of CO2 = -1.54238e-06
max of N2 = 0.767705
min of N2 = 0
MULES: Solving for hs
DICPCG:  Solving for hs, Initial residual = 0.00165576, Final residual = 3.09968e-10, No Iterations 2
GAMG:  Solving for p_rgh, Initial residual = 0.0919469, Final residual = 0.000525151, No Iterations 3
diagonal:  Solving for rho, Initial residual = 0, Final residual = 0, No Iterations 0
time step continuity errors : sum local = 2.37474e-05, global = 3.54099e-06, cumulative = -9.86707e-05
GAMG:  Solving for p_rgh, Initial residual = 0.0125606, Final residual = 5.17724e-07, No Iterations 7
diagonal:  Solving for rho, Initial residual = 0, Final residual = 0, No Iterations 0
time step continuity errors : sum local = 2.03216e-08, global = 1.23144e-09, cumulative = -9.86694e-05
DILUPBiCG:  Solving for k, Initial residual = 0.0132986, Final residual = 2.01623e-09, No Iterations 5

Evolving reactingOneDim for region panelRegion
diagonal:  Solving for rho, Initial residual = 0, Final residual = 0, No Iterations 0
diagonal:  Solving for Yv, Initial residual = 0, Final residual = 0, No Iterations 0
DICPCG:  Solving for T, Initial residual = 0.0045732, Final residual = 4.60245e-19, No Iterations 1
pyrolysis min/max(T) = 293.482, 590.534

Pyrolysis: reactingOneDim
    Total gas mass produced  [kg] = 2.35814e-06
    Total solid mass lost    [kg] = -2.35814e-06
    Total pyrolysis gases  [kg/s] = 3.29756e-05
    Total heat release rate [J/s] = -51.6768

ExecutionTime = 3.11 s  ClockTime = 3 s

Courant Number mean: 0.103776 max: 0.48495
deltaT = 0.00651852
Time = 1.46311

diagonal:  Solving for rho, Initial residual = 0, Final residual = 0, No Iterations 0
DILUPBiCG:  Solving for Ux, Initial residual = 0.0219428, Final residual = 4.47472e-08, No Iterations 4
DILUPBiCG:  Solving for Uz, Initial residual = 0.0249362, Final residual = 2.50804e-08, No Iterations 5
MULES: Solving for O2
DICPCG:  Solving for O2, Initial residual = 0.00203924, Final residual = 2.82283e-10, No Iterations 2
max of O2 = 0.23301
min of O2 = 0.000307562
MULES: Solving for H2O
DICPCG:  Solving for H2O, Initial residual = 0.0194363, Final residual = 3.37206e-17, No Iterations 1
max of H2O = 0.0967722
min of H2O = -8.41808e-07
MULES: Solving for C3H8
DICPCG:  Solving for C3H8, Initial residual = 0.00258528, Final residual = 6.58435e-10, No Iterations 2
max of C3H8 = 0.90728
min of C3H8 = 0
MULES: Solving for CO2
DICPCG:  Solving for CO2, Initial residual = 0.0194195, Final residual = 2.40037e-17, No Iterations 1
max of CO2 = 0.177305
min of CO2 = -1.54238e-06
max of N2 = 0.767248
min of N2 = 0
MULES: Solving for hs
DICPCG:  Solving for hs, Initial residual = 0.00161964, Final residual = 2.59087e-10, No Iterations 2
GAMG:  Solving for p_rgh, Initial residual = 0.102606, Final residual = 0.000649949, No Iterations 3
diagonal:  Solving for rho, Initial residual = 0, Final residual = 0, No Iterations 0
time step continuity errors : sum local = 2.55818e-05, global = -6.13271e-06, cumulative = -0.000104802
GAMG:  Solving for p_rgh, Initial residual = 0.00851395, Final residual = 3.94394e-07, No Iterations 8
diagonal:  Solving for rho, Initial residual = 0, Final residual = 0, No Iterations 0
time step continuity errors : sum local = 1.6311e-08, global = -1.32363e-09, cumulative = -0.000104803
DILUPBiCG:  Solving for k, Initial residual = 0.0129066, Final residual = 2.01394e-09, No Iterations 5

Evolving reactingOneDim for region panelRegion
diagonal:  Solving for rho, Initial residual = 0, Final residual = 0, No Iterations 0
diagonal:  Solving for Yv, Initial residual = 0, Final residual = 0, No Iterations 0
DICPCG:  Solving for T, Initial residual = 0.00444612, Final residual = 4.15402e-19, No Iterations 1
pyrolysis min/max(T) = 293.514, 589.743

Pyrolysis: reactingOneDim
    Total gas mass produced  [kg] = 2.56425e-06
    Total solid mass lost    [kg] = -2.56425e-06
    Total pyrolysis gases  [kg/s] = 3.16199e-05
    Total heat release rate [J/s] = -49.5523

ExecutionTime = 3.13 s  ClockTime = 3 s

Courant Number mean: 0.104646 max: 0.492616
deltaT = 0.00651852
Time = 1.46963

diagonal:  Solving for rho, Initial residual = 0, Final residual = 0, No Iterations 0
DILUPBiCG:  Solving for Ux, Initial residual = 0.0209824, Final residual = 3.90282e-08, No Iterations 4
DILUPBiCG:  Solving for Uz, Initial residual = 0.0254213, Final residual = 3.29877e-08, No Iterations 4
MULES: Solving for O2
DICPCG:  Solving for O2, Initial residual = 0.00199382, Final residual = 2.33343e-10, No Iterations 2
max of O2 = 0.23301
min of O2 = 0.000294153
MULES: Solving for H2O
DICPCG:  Solving for H2O, Initial residual = 0.0137003, Final residual = 4.13823e-17, No Iterations 1
max of H2O = 0.0969867
min of H2O = -8.41804e-07
MULES: Solving for C3H8
DICPCG:  Solving for C3H8, Initial residual = 0.00258635, Final residual = 5.52007e-10, No Iterations 2
max of C3H8 = 0.90783
min of C3H8 = 0
MULES: Solving for CO2
DICPCG:  Solving for CO2, Initial residual = 0.0138529, Final residual = 2.33578e-17, No Iterations 1
max of CO2 = 0.177698
min of CO2 = -1.54237e-06
max of N2 = 0.768085
min of N2 = 0
MULES: Solving for hs
DICPCG:  Solving for hs, Initial residual = 0.00159072, Final residual = 2.16155e-10, No Iterations 2
GAMG:  Solving for p_rgh, Initial residual = 0.111451, Final residual = 0.000503469, No Iterations 3
diagonal:  Solving for rho, Initial residual = 0, Final residual = 0, No Iterations 0
time step continuity errors : sum local = 2.15184e-05, global = 3.74906e-06, cumulative = -0.000101054
GAMG:  Solving for p_rgh, Initial residual = 0.0138018, Final residual = 5.54021e-07, No Iterations 7
diagonal:  Solving for rho, Initial residual = 0, Final residual = 0, No Iterations 0
time step continuity errors : sum local = 2.34317e-08, global = 1.44476e-09, cumulative = -0.000101053
DILUPBiCG:  Solving for k, Initial residual = 0.0129937, Final residual = 1.86367e-11, No Iterations 6

Evolving reactingOneDim for region panelRegion
diagonal:  Solving for rho, Initial residual = 0, Final residual = 0, No Iterations 0
diagonal:  Solving for Yv, Initial residual = 0, Final residual = 0, No Iterations 0
DICPCG:  Solving for T, Initial residual = 0.00432977, Final residual = 9.23209e-19, No Iterations 1
pyrolysis min/max(T) = 293.548, 589.073

Pyrolysis: reactingOneDim
    Total gas mass produced  [kg] = 2.76335e-06
    Total solid mass lost    [kg] = -2.76335e-06
    Total pyrolysis gases  [kg/s] = 3.05434e-05
    Total heat release rate [J/s] = -47.8652

ExecutionTime = 3.14 s  ClockTime = 3 s

Courant Number mean: 0.106127 max: 0.505778
deltaT = 0.00620811
Time = 1.47584

diagonal:  Solving for rho, Initial residual = 0, Final residual = 0, No Iterations 0
DILUPBiCG:  Solving for Ux, Initial residual = 0.0183087, Final residual = 5.6252e-08, No Iterations 4
DILUPBiCG:  Solving for Uz, Initial residual = 0.023691, Final residual = 2.96204e-08, No Iterations 4
MULES: Solving for O2
DICPCG:  Solving for O2, Initial residual = 0.00198431, Final residual = 1.86197e-10, No Iterations 2
max of O2 = 0.23301
min of O2 = 0.000280399
MULES: Solving for H2O
DICPCG:  Solving for H2O, Initial residual = 0.0138338, Final residual = 2.14002e-17, No Iterations 1
max of H2O = 0.0972396
min of H2O = -8.41808e-07
MULES: Solving for C3H8
DICPCG:  Solving for C3H8, Initial residual = 0.00254849, Final residual = 4.04488e-10, No Iterations 2
max of C3H8 = 0.908379
min of C3H8 = 0
MULES: Solving for CO2
DICPCG:  Solving for CO2, Initial residual = 0.0139144, Final residual = 1.32147e-17, No Iterations 1
max of CO2 = 0.178162
min of CO2 = -1.54235e-06
max of N2 = 0.767818
min of N2 = 0
MULES: Solving for hs
DICPCG:  Solving for hs, Initial residual = 0.00157255, Final residual = 1.76811e-10, No Iterations 2
GAMG:  Solving for p_rgh, Initial residual = 0.096235, Final residual = 0.000661597, No Iterations 3
diagonal:  Solving for rho, Initial residual = 0, Final residual = 0, No Iterations 0
time step continuity errors : sum local = 2.56515e-05, global = -3.74626e-06, cumulative = -0.000104799
GAMG:  Solving for p_rgh, Initial residual = 0.0097288, Final residual = 9.01809e-07, No Iterations 7
diagonal:  Solving for rho, Initial residual = 0, Final residual = 0, No Iterations 0
time step continuity errors : sum local = 3.69833e-08, global = -2.65905e-09, cumulative = -0.000104802
DILUPBiCG:  Solving for k, Initial residual = 0.0127894, Final residual = 1.05602e-09, No Iterations 5

Evolving reactingOneDim for region panelRegion
diagonal:  Solving for rho, Initial residual = 0, Final residual = 0, No Iterations 0
diagonal:  Solving for Yv, Initial residual = 0, Final residual = 0, No Iterations 0
DICPCG:  Solving for T, Initial residual = 0.0040231, Final residual = 3.16004e-19, No Iterations 1
pyrolysis min/max(T) = 293.582, 588.603

Pyrolysis: reactingOneDim
    Total gas mass produced  [kg] = 2.94778e-06
    Total solid mass lost    [kg] = -2.94778e-06
    Total pyrolysis gases  [kg/s] = 2.97078e-05
    Total heat release rate [J/s] = -46.5558

ExecutionTime = 3.16 s  ClockTime = 3 s

Courant Number mean: 0.102048 max: 0.503804
deltaT = 0.00591249
Time = 1.48175

diagonal:  Solving for rho, Initial residual = 0, Final residual = 0, No Iterations 0
DILUPBiCG:  Solving for Ux, Initial residual = 0.0160756, Final residual = 2.70428e-08, No Iterations 4
DILUPBiCG:  Solving for Uz, Initial residual = 0.0220064, Final residual = 1.9516e-08, No Iterations 4
MULES: Solving for O2
DICPCG:  Solving for O2, Initial residual = 0.00191405, Final residual = 1.63153e-10, No Iterations 2
max of O2 = 0.23301
min of O2 = 0.000266575
MULES: Solving for H2O
DICPCG:  Solving for H2O, Initial residual = 0.0185674, Final residual = 1.70972e-17, No Iterations 1
max of H2O = 0.0974944
min of H2O = -8.4181e-07
MULES: Solving for C3H8
DICPCG:  Solving for C3H8, Initial residual = 0.00250833, Final residual = 2.85931e-10, No Iterations 2
max of C3H8 = 0.908915
min of C3H8 = 0
MULES: Solving for CO2
DICPCG:  Solving for CO2, Initial residual = 0.0183776, Final residual = 9.56361e-18, No Iterations 1
max of CO2 = 0.178629
min of CO2 = -1.54238e-06
max of N2 = 0.767475
min of N2 = 0
MULES: Solving for hs
DICPCG:  Solving for hs, Initial residual = 0.001539, Final residual = 1.68961e-10, No Iterations 2
GAMG:  Solving for p_rgh, Initial residual = 0.0840098, Final residual = 0.000564212, No Iterations 3
diagonal:  Solving for rho, Initial residual = 0, Final residual = 0, No Iterations 0
time step continuity errors : sum local = 2.14238e-05, global = 3.04078e-06, cumulative = -0.000101761
GAMG:  Solving for p_rgh, Initial residual = 0.00955737, Final residual = 5.11674e-07, No Iterations 7
diagonal:  Solving for rho, Initial residual = 0, Final residual = 0, No Iterations 0
time step continuity errors : sum local = 1.66611e-08, global = 1.01559e-09, cumulative = -0.00010176
DILUPBiCG:  Solving for k, Initial residual = 0.0123109, Final residual = 7.70616e-10, No Iterations 5

Evolving reactingOneDim for region panelRegion
diagonal:  Solving for rho, Initial residual = 0, Final residual = 0, No Iterations 0
diagonal:  Solving for Yv, Initial residual = 0, Final residual = 0, No Iterations 0
DICPCG:  Solving for T, Initial residual = 0.00374742, Final residual = 4.37522e-19, No Iterations 1
pyrolysis min/max(T) = 293.615, 588.314

Pyrolysis: reactingOneDim
    Total gas mass produced  [kg] = 3.1198e-06
    Total solid mass lost    [kg] = -3.1198e-06
    Total pyrolysis gases  [kg/s] = 2.9094e-05
    Total heat release rate [J/s] = -45.5939

ExecutionTime = 3.18 s  ClockTime = 3 s

Courant Number mean: 0.0986037 max: 0.514187
deltaT = 0.00563094
Time = 1.48738

diagonal:  Solving for rho, Initial residual = 0, Final residual = 0, No Iterations 0
DILUPBiCG:  Solving for Ux, Initial residual = 0.0188707, Final residual = 3.36224e-08, No Iterations 4
DILUPBiCG:  Solving for Uz, Initial residual = 0.0238998, Final residual = 2.04054e-08, No Iterations 4
MULES: Solving for O2
DICPCG:  Solving for O2, Initial residual = 0.00188582, Final residual = 1.57005e-10, No Iterations 2
max of O2 = 0.23301
min of O2 = 0.00025278
MULES: Solving for H2O
DICPCG:  Solving for H2O, Initial residual = 0.0208837, Final residual = 1.25904e-17, No Iterations 1
max of H2O = 0.0976889
min of H2O = -8.418e-07
MULES: Solving for C3H8
DICPCG:  Solving for C3H8, Initial residual = 0.00245596, Final residual = 2.18957e-10, No Iterations 2
max of C3H8 = 0.909435
min of C3H8 = 0
MULES: Solving for CO2
DICPCG:  Solving for CO2, Initial residual = 0.0208875, Final residual = 8.25552e-18, No Iterations 1
max of CO2 = 0.178985
min of CO2 = -1.54237e-06
max of N2 = 0.769631
min of N2 = 0
MULES: Solving for hs
DICPCG:  Solving for hs, Initial residual = 0.00150642, Final residual = 1.6015e-10, No Iterations 2
GAMG:  Solving for p_rgh, Initial residual = 0.114138, Final residual = 0.000950367, No Iterations 3
diagonal:  Solving for rho, Initial residual = 0, Final residual = 0, No Iterations 0
time step continuity errors : sum local = 2.85263e-05, global = -4.49138e-06, cumulative = -0.000106251
GAMG:  Solving for p_rgh, Initial residual = 0.0111425, Final residual = 3.61707e-07, No Iterations 8
diagonal:  Solving for rho, Initial residual = 0, Final residual = 0, No Iterations 0
time step continuity errors : sum local = 1.15515e-08, global = -7.62393e-10, cumulative = -0.000106252
DILUPBiCG:  Solving for k, Initial residual = 0.0119743, Final residual = 9.12593e-09, No Iterations 4

Evolving reactingOneDim for region panelRegion
diagonal:  Solving for rho, Initial residual = 0, Final residual = 0, No Iterations 0
diagonal:  Solving for Yv, Initial residual = 0, Final residual = 0, No Iterations 0
DICPCG:  Solving for T, Initial residual = 0.00349846, Final residual = 6.43105e-19, No Iterations 1
pyrolysis min/max(T) = 293.648, 588.141

Pyrolysis: reactingOneDim
    Total gas mass produced  [kg] = 3.28115e-06
    Total solid mass lost    [kg] = -3.28115e-06
    Total pyrolysis gases  [kg/s] = 2.86548e-05
    Total heat release rate [J/s] = -44.9056

ExecutionTime = 3.19 s  ClockTime = 3 s

Courant Number mean: 0.0950806 max: 0.511494
deltaT = 0.0053628
Time = 1.49274

diagonal:  Solving for rho, Initial residual = 0, Final residual = 0, No Iterations 0
DILUPBiCG:  Solving for Ux, Initial residual = 0.0156587, Final residual = 8.95273e-09, No Iterations 4
DILUPBiCG:  Solving for Uz, Initial residual = 0.0199715, Final residual = 1.38213e-08, No Iterations 4
MULES: Solving for O2
DICPCG:  Solving for O2, Initial residual = 0.00182666, Final residual = 1.52225e-10, No Iterations 2
max of O2 = 0.23301
min of O2 = 0.000239106
MULES: Solving for H2O
DICPCG:  Solving for H2O, Initial residual = 0.0114469, Final residual = 1.92567e-17, No Iterations 1
max of H2O = 0.0978197
min of H2O = -8.41804e-07
MULES: Solving for C3H8
DICPCG:  Solving for C3H8, Initial residual = 0.00243947, Final residual = 1.83685e-10, No Iterations 2
max of C3H8 = 0.90994
min of C3H8 = 0
MULES: Solving for CO2
DICPCG:  Solving for CO2, Initial residual = 0.0114554, Final residual = 9.23561e-18, No Iterations 1
max of CO2 = 0.179225
min of CO2 = -1.54237e-06
max of N2 = 0.771278
min of N2 = 0
MULES: Solving for hs
DICPCG:  Solving for hs, Initial residual = 0.00148035, Final residual = 1.56435e-10, No Iterations 2
GAMG:  Solving for p_rgh, Initial residual = 0.0854534, Final residual = 0.000566422, No Iterations 3
diagonal:  Solving for rho, Initial residual = 0, Final residual = 0, No Iterations 0
time step continuity errors : sum local = 1.69402e-05, global = 4.70295e-06, cumulative = -0.000101549
GAMG:  Solving for p_rgh, Initial residual = 0.00893546, Final residual = 7.30624e-07, No Iterations 7
diagonal:  Solving for rho, Initial residual = 0, Final residual = 0, No Iterations 0
time step continuity errors : sum local = 2.04675e-08, global = 1.41932e-09, cumulative = -0.000101548
DILUPBiCG:  Solving for k, Initial residual = 0.0114587, Final residual = 5.7675e-09, No Iterations 4

Evolving reactingOneDim for region panelRegion
diagonal:  Solving for rho, Initial residual = 0, Final residual = 0, No Iterations 0
diagonal:  Solving for Yv, Initial residual = 0, Final residual = 0, No Iterations 0
DICPCG:  Solving for T, Initial residual = 0.00327251, Final residual = 3.47831e-19, No Iterations 1
pyrolysis min/max(T) = 293.681, 588.065

Pyrolysis: reactingOneDim
    Total gas mass produced  [kg] = 3.43321e-06
    Total solid mass lost    [kg] = -3.43321e-06
    Total pyrolysis gases  [kg/s] = 2.83543e-05
    Total heat release rate [J/s] = -44.4347

ExecutionTime = 3.21 s  ClockTime = 3 s

Courant Number mean: 0.091743 max: 0.512433
deltaT = 0.00510743
Time = 1.49785

diagonal:  Solving for rho, Initial residual = 0, Final residual = 0, No Iterations 0
DILUPBiCG:  Solving for Ux, Initial residual = 0.0159661, Final residual = 1.98871e-08, No Iterations 4
DILUPBiCG:  Solving for Uz, Initial residual = 0.0197656, Final residual = 1.38635e-08, No Iterations 4
MULES: Solving for O2
DICPCG:  Solving for O2, Initial residual = 0.00179777, Final residual = 1.33249e-10, No Iterations 2
max of O2 = 0.23301
min of O2 = 0.000225576
MULES: Solving for H2O
DICPCG:  Solving for H2O, Initial residual = 0.0112935, Final residual = 1.8901e-17, No Iterations 1
max of H2O = 0.097918
min of H2O = -8.41809e-07
MULES: Solving for C3H8
DICPCG:  Solving for C3H8, Initial residual = 0.00240731, Final residual = 1.54717e-10, No Iterations 2
max of C3H8 = 0.910429
min of C3H8 = 0
MULES: Solving for CO2
DICPCG:  Solving for CO2, Initial residual = 0.0112718, Final residual = 1.12452e-17, No Iterations 1
max of CO2 = 0.179405
min of CO2 = -1.54237e-06
max of N2 = 0.769649
min of N2 = 0
MULES: Solving for hs
DICPCG:  Solving for hs, Initial residual = 0.00145317, Final residual = 1.31068e-10, No Iterations 2
GAMG:  Solving for p_rgh, Initial residual = 0.0925454, Final residual = 0.000675452, No Iterations 3
diagonal:  Solving for rho, Initial residual = 0, Final residual = 0, No Iterations 0
time step continuity errors : sum local = 1.69588e-05, global = -2.20854e-06, cumulative = -0.000103756
GAMG:  Solving for p_rgh, Initial residual = 0.00708488, Final residual = 6.07313e-07, No Iterations 7
diagonal:  Solving for rho, Initial residual = 0, Final residual = 0, No Iterations 0
time step continuity errors : sum local = 1.63175e-08, global = -1.04543e-09, cumulative = -0.000103757
DILUPBiCG:  Solving for k, Initial residual = 0.0110989, Final residual = 4.38925e-09, No Iterations 4

Evolving reactingOneDim for region panelRegion
diagonal:  Solving for rho, Initial residual = 0, Final residual = 0, No Iterations 0
diagonal:  Solving for Yv, Initial residual = 0, Final residual = 0, No Iterations 0
DICPCG:  Solving for T, Initial residual = 0.00306744, Final residual = 3.27665e-19, No Iterations 1
pyrolysis min/max(T) = 293.714, 588.064

Pyrolysis: reactingOneDim
    Total gas mass produced  [kg] = 3.57704e-06
    Total solid mass lost    [kg] = -3.57704e-06
    Total pyrolysis gases  [kg/s] = 2.81621e-05
    Total heat release rate [J/s] = -44.1334

ExecutionTime = 3.22 s  ClockTime = 3 s

End

Finalising parallel run
