/*---------------------------------------------------------------------------*\
| =========                 |                                                 |
| \\      /  F ield         | OpenFOAM: The Open Source CFD Toolbox           |
|  \\    /   O peration     | Version:  1.7.x                                 |
|   \\  /    A nd           | Web:      www.OpenFOAM.com                      |
|    \\/     M anipulation  |                                                 |
\*---------------------------------------------------------------------------*/
Build  : 1.7.x-356805cce996
Exec   : fireFoam
Date   : May 23 2011
Time   : 15:44:34
Host   : kvmlinux
PID    : 27609
Case   : /home/meredithk/filmModel/testBatteryFireFOAM/counterFlowMixing2D
nProcs : 1
SigFpe : Enabling floating point exception trapping (FOAM_SIGFPE).

// * * * * * * * * * * * * * * * * * * * * * * * * * * * * * * * * * * * * * //
FireFOAM Build Version:  5987a816c9aca3e866f5fc5977a376e9a1338485
FireFOAM Build Time Stamp:  Mon May 23 15:42:56 EDT 2011
****************************************************
Create time

Create mesh for time = 0


Reading g
Reading thermophysical properties

Selecting thermodynamics package hsPsiMixtureThermoNew<singleStepReactingMixture<gasThermoPhysics>>
Selecting chemistryReader foamChemistryReader
Fuel heat of combustion :-1.86265e-09
Mole based specieStoichCoeffs: 3(1 1 3.76)
stoichiometric air-fuel ratio :7.62292
stoichiometric oxygen-fuel ratio :1.7762
Max products: 3(0.205986 0.11597 0.678044)
mass based specieStoichCoeffs: 3(1.7762 1 5.84672)
Creating component thermo properties:
    multi-component carrier - 3 species
    liquids - 1 components
    solids - 0 components
Reading field p_rgh

Reading field U

Reading/calculating face flux field phi

Creating turbulence model

Selecting turbulence model type LESModel
Selecting LES turbulence model oneEqEddy
--> FOAM Warning : 
    From function cubeRootVolDelta::calcDelta()
    in file cubeRootVolDelta/cubeRootVolDelta.C at line 52
    Case is 2D, LES is not strictly applicable

oneEqEddyCoeffs
{
    ce              1.048;
    Prt             1;
    ck              0.094;
}

Creating combustion model

Selecting combustion model none
stoichiometric mixture fraction is = 0.11597
Creating field DpDt

Calculating field g.h

Selecting radiationModel none
Creating pyrolysis model

Selecting pyrolysisModel none

Constructing reacting cloud
Constructing cloud functions
    none
Selecting DispersionModel none
Selecting DragModel SphereDrag
Selecting InjectionModel ConeInjection
    Constructing 2-D injection
Selecting pdfType RosinRammler
Selecting PatchInteractionModel StandardWallInteraction
Selecting SurfaceFilmModel ThermoSurfaceFilm
    Applying absorb interaction model
Selecting U IntegrationScheme Euler
Selecting HeatTransferModel RanzMarshall
Selecting T IntegrationScheme Analytical
Selecting CompositionModel SinglePhaseMixture
Selecting PhaseChangeModel LiquidEvaporation

Constructing surface film model
Selecting surfaceFilmModel none
Courant Number mean: 0 max: 0.5

Starting time loop

Courant Number mean: 0 max: 0.961538
deltaT = 0.00192308
Time = 0.00192308

diagonal:  Solving for rho, Initial residual = 0, Final residual = 0, No Iterations 0
smoothSolver:  Solving for Ux, Initial residual = 1, Final residual = 2.59688e-08, No Iterations 9
smoothSolver:  Solving for Uy, Initial residual = 0.0019401, Final residual = 9.84021e-08, No Iterations 5
smoothSolver:  Solving for O2, Initial residual = 1, Final residual = 2.04936e-08, No Iterations 7
max of O2 = 0.23301
min of O2 = 0
smoothSolver:  Solving for H2O, Initial residual = 1, Final residual = 2.04936e-08, No Iterations 7
max of H2O = 1
min of H2O = 0
max of N2 = 0.76699
min of N2 = 0
DILUPBiCG:  Solving for hs, Initial residual = 1, Final residual = 2.76122e-09, No Iterations 3
GAMG:  Solving for p_rgh, Initial residual = 1, Final residual = 0.00404716, No Iterations 8
diagonal:  Solving for rho, Initial residual = 0, Final residual = 0, No Iterations 0
time step continuity errors : sum local = 8.37645e-05, global = 3.90013e-05, cumulative = 3.90013e-05
GAMG:  Solving for p_rgh, Initial residual = 0.0343061, Final residual = 9.24392e-08, No Iterations 19
diagonal:  Solving for rho, Initial residual = 0, Final residual = 0, No Iterations 0
time step continuity errors : sum local = 1.54715e-08, global = 3.89813e-09, cumulative = 3.90052e-05
smoothSolver:  Solving for k, Initial residual = 1, Final residual = 5.18131e-08, No Iterations 12
ExecutionTime = 0.04 s  ClockTime = 0 s

Courant Number mean: 0.171863 max: 0.96154
deltaT = 0.00192308
Time = 0.00384615

diagonal:  Solving for rho, Initial residual = 0, Final residual = 0, No Iterations 0
smoothSolver:  Solving for Ux, Initial residual = 0.332593, Final residual = 2.78362e-08, No Iterations 11
smoothSolver:  Solving for Uy, Initial residual = 0.318996, Final residual = 3.55759e-08, No Iterations 10
smoothSolver:  Solving for O2, Initial residual = 0.220304, Final residual = 6.43706e-08, No Iterations 9
max of O2 = 0.23301
min of O2 = 0
smoothSolver:  Solving for H2O, Initial residual = 0.220304, Final residual = 6.43706e-08, No Iterations 9
max of H2O = 1
min of H2O = 0
max of N2 = 0.76699
min of N2 = 0
DILUPBiCG:  Solving for hs, Initial residual = 0.2206, Final residual = 6.61228e-09, No Iterations 4
GAMG:  Solving for p_rgh, Initial residual = 0.178742, Final residual = 0.00136962, No Iterations 7
diagonal:  Solving for rho, Initial residual = 0, Final residual = 0, No Iterations 0
time step continuity errors : sum local = 0.000160231, global = 3.54483e-05, cumulative = 7.44535e-05
GAMG:  Solving for p_rgh, Initial residual = 0.218798, Final residual = 9.34776e-08, No Iterations 21
diagonal:  Solving for rho, Initial residual = 0, Final residual = 0, No Iterations 0
time step continuity errors : sum local = 3.04742e-09, global = -7.14617e-10, cumulative = 7.44528e-05
smoothSolver:  Solving for k, Initial residual = 0.205392, Final residual = 7.03409e-08, No Iterations 9
ExecutionTime = 0.05 s  ClockTime = 0 s

Courant Number mean: 0.18877 max: 0.961538
deltaT = 0.00192308
Time = 0.00576923

diagonal:  Solving for rho, Initial residual = 0, Final residual = 0, No Iterations 0
smoothSolver:  Solving for Ux, Initial residual = 0.0492556, Final residual = 4.47474e-08, No Iterations 9
smoothSolver:  Solving for Uy, Initial residual = 0.0463757, Final residual = 4.61555e-08, No Iterations 9
smoothSolver:  Solving for O2, Initial residual = 0.11352, Final residual = 9.18962e-08, No Iterations 9
max of O2 = 0.23301
min of O2 = 0
smoothSolver:  Solving for H2O, Initial residual = 0.11352, Final residual = 9.18962e-08, No Iterations 9
max of H2O = 1
min of H2O = 0
max of N2 = 0.76699
min of N2 = 0
DILUPBiCG:  Solving for hs, Initial residual = 0.113985, Final residual = 5.21512e-09, No Iterations 4
GAMG:  Solving for p_rgh, Initial residual = 0.217924, Final residual = 0.000949812, No Iterations 8
diagonal:  Solving for rho, Initial residual = 0, Final residual = 0, No Iterations 0
time step continuity errors : sum local = 1.33966e-05, global = -6.26648e-06, cumulative = 6.81863e-05
GAMG:  Solving for p_rgh, Initial residual = 0.130248, Final residual = 5.15685e-08, No Iterations 22
diagonal:  Solving for rho, Initial residual = 0, Final residual = 0, No Iterations 0
time step continuity errors : sum local = 3.81694e-10, global = 1.25945e-10, cumulative = 6.81865e-05
smoothSolver:  Solving for k, Initial residual = 0.139192, Final residual = 5.34786e-08, No Iterations 9
ExecutionTime = 0.07 s  ClockTime = 0 s

Courant Number mean: 0.189453 max: 0.961538
deltaT = 0.00192308
Time = 0.00769231

diagonal:  Solving for rho, Initial residual = 0, Final residual = 0, No Iterations 0
smoothSolver:  Solving for Ux, Initial residual = 0.0258772, Final residual = 3.54767e-08, No Iterations 9
smoothSolver:  Solving for Uy, Initial residual = 0.0245141, Final residual = 4.65038e-08, No Iterations 9
smoothSolver:  Solving for O2, Initial residual = 0.0713127, Final residual = 8.47856e-08, No Iterations 9
max of O2 = 0.23301
min of O2 = 0
smoothSolver:  Solving for H2O, Initial residual = 0.0713127, Final residual = 8.47856e-08, No Iterations 9
max of H2O = 1
min of H2O = 0
max of N2 = 0.76699
min of N2 = 0
DILUPBiCG:  Solving for hs, Initial residual = 0.0713471, Final residual = 2.73221e-09, No Iterations 4
GAMG:  Solving for p_rgh, Initial residual = 0.249752, Final residual = 0.00197939, No Iterations 5
diagonal:  Solving for rho, Initial residual = 0, Final residual = 0, No Iterations 0
time step continuity errors : sum local = 6.86659e-06, global = 3.53769e-06, cumulative = 7.17242e-05
GAMG:  Solving for p_rgh, Initial residual = 0.0790262, Final residual = 6.97698e-08, No Iterations 19
diagonal:  Solving for rho, Initial residual = 0, Final residual = 0, No Iterations 0
time step continuity errors : sum local = 2.63758e-10, global = -4.0245e-11, cumulative = 7.17241e-05
smoothSolver:  Solving for k, Initial residual = 0.120241, Final residual = 6.40626e-08, No Iterations 9
ExecutionTime = 0.08 s  ClockTime = 0 s

Courant Number mean: 0.190919 max: 0.961538
deltaT = 0.00192308
Time = 0.00961538

diagonal:  Solving for rho, Initial residual = 0, Final residual = 0, No Iterations 0
smoothSolver:  Solving for Ux, Initial residual = 0.0201211, Final residual = 2.56928e-08, No Iterations 9
smoothSolver:  Solving for Uy, Initial residual = 0.0215029, Final residual = 4.33363e-08, No Iterations 9
smoothSolver:  Solving for O2, Initial residual = 0.0521896, Final residual = 8.31469e-08, No Iterations 9
max of O2 = 0.23301
min of O2 = 0
smoothSolver:  Solving for H2O, Initial residual = 0.0521896, Final residual = 8.31469e-08, No Iterations 9
max of H2O = 1
min of H2O = 0
max of N2 = 0.76699
min of N2 = 0
DILUPBiCG:  Solving for hs, Initial residual = 0.0521883, Final residual = 1.89415e-09, No Iterations 4
GAMG:  Solving for p_rgh, Initial residual = 0.177575, Final residual = 0.00122354, No Iterations 6
diagonal:  Solving for rho, Initial residual = 0, Final residual = 0, No Iterations 0
time step continuity errors : sum local = 3.56998e-06, global = 9.13563e-07, cumulative = 7.26377e-05
GAMG:  Solving for p_rgh, Initial residual = 0.0445501, Final residual = 8.56544e-08, No Iterations 19
diagonal:  Solving for rho, Initial residual = 0, Final residual = 0, No Iterations 0
time step continuity errors : sum local = 3.36599e-10, global = 3.77241e-11, cumulative = 7.26377e-05
smoothSolver:  Solving for k, Initial residual = 0.0971293, Final residual = 6.07222e-08, No Iterations 9
ExecutionTime = 0.09 s  ClockTime = 0 s

Courant Number mean: 0.193913 max: 0.961539
deltaT = 0.00192308
Time = 0.0115385

diagonal:  Solving for rho, Initial residual = 0, Final residual = 0, No Iterations 0
smoothSolver:  Solving for Ux, Initial residual = 0.0144269, Final residual = 9.05831e-08, No Iterations 8
smoothSolver:  Solving for Uy, Initial residual = 0.0186214, Final residual = 3.96813e-08, No Iterations 9
smoothSolver:  Solving for O2, Initial residual = 0.0417855, Final residual = 8.57217e-08, No Iterations 9
max of O2 = 0.23301
min of O2 = 0
smoothSolver:  Solving for H2O, Initial residual = 0.0417855, Final residual = 8.57217e-08, No Iterations 9
max of H2O = 1
min of H2O = 0
max of N2 = 0.76699
min of N2 = 0
DILUPBiCG:  Solving for hs, Initial residual = 0.041784, Final residual = 1.82502e-09, No Iterations 4
GAMG:  Solving for p_rgh, Initial residual = 0.14181, Final residual = 0.0012818, No Iterations 6
diagonal:  Solving for rho, Initial residual = 0, Final residual = 0, No Iterations 0
time step continuity errors : sum local = 3.88249e-06, global = -8.58806e-07, cumulative = 7.17789e-05
GAMG:  Solving for p_rgh, Initial residual = 0.0269407, Final residual = 8.51876e-08, No Iterations 18
diagonal:  Solving for rho, Initial residual = 0, Final residual = 0, No Iterations 0
time step continuity errors : sum local = 3.51391e-10, global = -8.46061e-11, cumulative = 7.17788e-05
smoothSolver:  Solving for k, Initial residual = 0.08343, Final residual = 6.0195e-08, No Iterations 9
ExecutionTime = 0.1 s  ClockTime = 0 s

Courant Number mean: 0.197533 max: 0.961538
deltaT = 0.00192308
Time = 0.0134615

diagonal:  Solving for rho, Initial residual = 0, Final residual = 0, No Iterations 0
smoothSolver:  Solving for Ux, Initial residual = 0.011811, Final residual = 7.7336e-08, No Iterations 8
smoothSolver:  Solving for Uy, Initial residual = 0.0170224, Final residual = 3.71026e-08, No Iterations 9
smoothSolver:  Solving for O2, Initial residual = 0.0352494, Final residual = 8.9849e-08, No Iterations 9
max of O2 = 0.23301
min of O2 = 0
smoothSolver:  Solving for H2O, Initial residual = 0.0352494, Final residual = 8.9849e-08, No Iterations 9
max of H2O = 1
min of H2O = 0
max of N2 = 0.76699
min of N2 = 0
DILUPBiCG:  Solving for hs, Initial residual = 0.0352488, Final residual = 2.22677e-09, No Iterations 4
GAMG:  Solving for p_rgh, Initial residual = 0.0959747, Final residual = 0.000878308, No Iterations 5
diagonal:  Solving for rho, Initial residual = 0, Final residual = 0, No Iterations 0
time step continuity errors : sum local = 2.89034e-06, global = 1.19323e-06, cumulative = 7.29721e-05
GAMG:  Solving for p_rgh, Initial residual = 0.0160167, Final residual = 8.86479e-08, No Iterations 17
diagonal:  Solving for rho, Initial residual = 0, Final residual = 0, No Iterations 0
time step continuity errors : sum local = 3.55546e-10, global = -8.65786e-11, cumulative = 7.2972e-05
smoothSolver:  Solving for k, Initial residual = 0.0714032, Final residual = 5.22532e-08, No Iterations 9
ExecutionTime = 0.11 s  ClockTime = 0 s

Courant Number mean: 0.201346 max: 0.961538
deltaT = 0.00192308
Time = 0.0153846

diagonal:  Solving for rho, Initial residual = 0, Final residual = 0, No Iterations 0
smoothSolver:  Solving for Ux, Initial residual = 0.0106004, Final residual = 6.79908e-08, No Iterations 8
smoothSolver:  Solving for Uy, Initial residual = 0.0158833, Final residual = 3.35964e-08, No Iterations 9
smoothSolver:  Solving for O2, Initial residual = 0.0307551, Final residual = 9.43392e-08, No Iterations 9
max of O2 = 0.23301
min of O2 = 0
smoothSolver:  Solving for H2O, Initial residual = 0.0307551, Final residual = 9.43392e-08, No Iterations 9
max of H2O = 1
min of H2O = 0
max of N2 = 0.76699
min of N2 = 0
DILUPBiCG:  Solving for hs, Initial residual = 0.0307549, Final residual = 4.70144e-09, No Iterations 4
GAMG:  Solving for p_rgh, Initial residual = 0.082602, Final residual = 0.000607082, No Iterations 5
diagonal:  Solving for rho, Initial residual = 0, Final residual = 0, No Iterations 0
time step continuity errors : sum local = 2.094e-06, global = 1.02101e-06, cumulative = 7.3993e-05
GAMG:  Solving for p_rgh, Initial residual = 0.012366, Final residual = 6.89425e-08, No Iterations 17
diagonal:  Solving for rho, Initial residual = 0, Final residual = 0, No Iterations 0
time step continuity errors : sum local = 3.0445e-10, global = -6.84398e-11, cumulative = 7.39929e-05
smoothSolver:  Solving for k, Initial residual = 0.0642081, Final residual = 5.51978e-08, No Iterations 9
ExecutionTime = 0.12 s  ClockTime = 0 s

Courant Number mean: 0.205176 max: 0.961538
deltaT = 0.00192308
Time = 0.0173077

diagonal:  Solving for rho, Initial residual = 0, Final residual = 0, No Iterations 0
smoothSolver:  Solving for Ux, Initial residual = 0.01002, Final residual = 6.63677e-08, No Iterations 8
smoothSolver:  Solving for Uy, Initial residual = 0.0149864, Final residual = 3.63912e-08, No Iterations 9
smoothSolver:  Solving for O2, Initial residual = 0.0274325, Final residual = 9.85478e-08, No Iterations 9
max of O2 = 0.23301
min of O2 = 0
smoothSolver:  Solving for H2O, Initial residual = 0.0274325, Final residual = 9.85478e-08, No Iterations 9
max of H2O = 1
min of H2O = 0
max of N2 = 0.76699
min of N2 = 0
DILUPBiCG:  Solving for hs, Initial residual = 0.0274324, Final residual = 6.53899e-08, No Iterations 3
GAMG:  Solving for p_rgh, Initial residual = 0.0657219, Final residual = 0.000441878, No Iterations 5
diagonal:  Solving for rho, Initial residual = 0, Final residual = 0, No Iterations 0
time step continuity errors : sum local = 1.58924e-06, global = 7.67205e-07, cumulative = 7.47601e-05
GAMG:  Solving for p_rgh, Initial residual = 0.0100423, Final residual = 9.91085e-08, No Iterations 16
diagonal:  Solving for rho, Initial residual = 0, Final residual = 0, No Iterations 0
time step continuity errors : sum local = 3.84797e-10, global = 8.37392e-11, cumulative = 7.47602e-05
smoothSolver:  Solving for k, Initial residual = 0.0578283, Final residual = 5.87354e-08, No Iterations 9
ExecutionTime = 0.13 s  ClockTime = 0 s

Courant Number mean: 0.208909 max: 0.961538
deltaT = 0.00192308
Time = 0.0192308

diagonal:  Solving for rho, Initial residual = 0, Final residual = 0, No Iterations 0
smoothSolver:  Solving for Ux, Initial residual = 0.00938706, Final residual = 6.19831e-08, No Iterations 8
smoothSolver:  Solving for Uy, Initial residual = 0.0141658, Final residual = 3.43155e-08, No Iterations 9
smoothSolver:  Solving for O2, Initial residual = 0.0248596, Final residual = 2.49972e-08, No Iterations 10
max of O2 = 0.23301
min of O2 = 0
smoothSolver:  Solving for H2O, Initial residual = 0.0248596, Final residual = 2.49972e-08, No Iterations 10
max of H2O = 1
min of H2O = 0
max of N2 = 0.76699
min of N2 = 0
DILUPBiCG:  Solving for hs, Initial residual = 0.0248596, Final residual = 4.90521e-08, No Iterations 3
GAMG:  Solving for p_rgh, Initial residual = 0.0664847, Final residual = 0.000635651, No Iterations 4
diagonal:  Solving for rho, Initial residual = 0, Final residual = 0, No Iterations 0
time step continuity errors : sum local = 2.33854e-06, global = -5.03019e-07, cumulative = 7.42572e-05
GAMG:  Solving for p_rgh, Initial residual = 0.00941127, Final residual = 7.1026e-08, No Iterations 15
diagonal:  Solving for rho, Initial residual = 0, Final residual = 0, No Iterations 0
time step continuity errors : sum local = 3.15875e-10, global = -6.3665e-11, cumulative = 7.42571e-05
smoothSolver:  Solving for k, Initial residual = 0.0539103, Final residual = 5.39125e-08, No Iterations 9
ExecutionTime = 0.15 s  ClockTime = 0 s

Courant Number mean: 0.212526 max: 0.961538
deltaT = 0.00192308
Time = 0.0211538

diagonal:  Solving for rho, Initial residual = 0, Final residual = 0, No Iterations 0
smoothSolver:  Solving for Ux, Initial residual = 0.00879715, Final residual = 5.752e-08, No Iterations 8
smoothSolver:  Solving for Uy, Initial residual = 0.013268, Final residual = 3.20432e-08, No Iterations 9
smoothSolver:  Solving for O2, Initial residual = 0.0227856, Final residual = 2.6164e-08, No Iterations 10
max of O2 = 0.23301
min of O2 = 0
smoothSolver:  Solving for H2O, Initial residual = 0.0227856, Final residual = 2.6164e-08, No Iterations 10
max of H2O = 1
min of H2O = 0
max of N2 = 0.76699
min of N2 = 0
DILUPBiCG:  Solving for hs, Initial residual = 0.0227857, Final residual = 3.75609e-08, No Iterations 3
GAMG:  Solving for p_rgh, Initial residual = 0.0564018, Final residual = 0.000267829, No Iterations 5
diagonal:  Solving for rho, Initial residual = 0, Final residual = 0, No Iterations 0
time step continuity errors : sum local = 1.00588e-06, global = 4.24023e-07, cumulative = 7.46811e-05
GAMG:  Solving for p_rgh, Initial residual = 0.00798728, Final residual = 9.66486e-08, No Iterations 15
diagonal:  Solving for rho, Initial residual = 0, Final residual = 0, No Iterations 0
time step continuity errors : sum local = 3.92694e-10, global = -1.25871e-10, cumulative = 7.4681e-05
smoothSolver:  Solving for k, Initial residual = 0.0510045, Final residual = 5.82038e-08, No Iterations 9
ExecutionTime = 0.16 s  ClockTime = 0 s

Courant Number mean: 0.215991 max: 0.961538
deltaT = 0.00192308
Time = 0.0230769

diagonal:  Solving for rho, Initial residual = 0, Final residual = 0, No Iterations 0
smoothSolver:  Solving for Ux, Initial residual = 0.00828722, Final residual = 5.57213e-08, No Iterations 8
smoothSolver:  Solving for Uy, Initial residual = 0.0125729, Final residual = 3.25486e-08, No Iterations 9
smoothSolver:  Solving for O2, Initial residual = 0.0210835, Final residual = 2.71767e-08, No Iterations 10
max of O2 = 0.23301
min of O2 = 0
smoothSolver:  Solving for H2O, Initial residual = 0.0210835, Final residual = 2.71767e-08, No Iterations 10
max of H2O = 1
min of H2O = 0
max of N2 = 0.76699
min of N2 = 0
DILUPBiCG:  Solving for hs, Initial residual = 0.0210835, Final residual = 3.1024e-08, No Iterations 3
GAMG:  Solving for p_rgh, Initial residual = 0.0495775, Final residual = 0.000411982, No Iterations 4
diagonal:  Solving for rho, Initial residual = 0, Final residual = 0, No Iterations 0
time step continuity errors : sum local = 1.56621e-06, global = -2.82596e-07, cumulative = 7.43984e-05
GAMG:  Solving for p_rgh, Initial residual = 0.00636543, Final residual = 8.64365e-08, No Iterations 14
diagonal:  Solving for rho, Initial residual = 0, Final residual = 0, No Iterations 0
time step continuity errors : sum local = 3.62313e-10, global = 5.58253e-11, cumulative = 7.43985e-05
smoothSolver:  Solving for k, Initial residual = 0.0484433, Final residual = 6.14746e-08, No Iterations 9
ExecutionTime = 0.17 s  ClockTime = 0 s

Courant Number mean: 0.219315 max: 0.961538
deltaT = 0.00192308
Time = 0.025

diagonal:  Solving for rho, Initial residual = 0, Final residual = 0, No Iterations 0
smoothSolver:  Solving for Ux, Initial residual = 0.00785641, Final residual = 5.07215e-08, No Iterations 8
smoothSolver:  Solving for Uy, Initial residual = 0.0118325, Final residual = 2.81086e-08, No Iterations 9
smoothSolver:  Solving for O2, Initial residual = 0.0196437, Final residual = 2.80262e-08, No Iterations 10
max of O2 = 0.23301
min of O2 = 0
smoothSolver:  Solving for H2O, Initial residual = 0.0196437, Final residual = 2.80262e-08, No Iterations 10
max of H2O = 1
min of H2O = 0
max of N2 = 0.76699
min of N2 = 0
DILUPBiCG:  Solving for hs, Initial residual = 0.0196438, Final residual = 2.79266e-08, No Iterations 3
GAMG:  Solving for p_rgh, Initial residual = 0.0529659, Final residual = 0.000441653, No Iterations 4
diagonal:  Solving for rho, Initial residual = 0, Final residual = 0, No Iterations 0
time step continuity errors : sum local = 1.70313e-06, global = 5.41541e-08, cumulative = 7.44526e-05
GAMG:  Solving for p_rgh, Initial residual = 0.00755747, Final residual = 9.2167e-08, No Iterations 14
diagonal:  Solving for rho, Initial residual = 0, Final residual = 0, No Iterations 0
time step continuity errors : sum local = 3.84409e-10, global = 5.6941e-11, cumulative = 7.44527e-05
smoothSolver:  Solving for k, Initial residual = 0.0477249, Final residual = 5.88524e-08, No Iterations 9
ExecutionTime = 0.18 s  ClockTime = 0 s

Courant Number mean: 0.222481 max: 0.961538
deltaT = 0.00192308
Time = 0.0269231

diagonal:  Solving for rho, Initial residual = 0, Final residual = 0, No Iterations 0
smoothSolver:  Solving for Ux, Initial residual = 0.00737038, Final residual = 4.76902e-08, No Iterations 8
smoothSolver:  Solving for Uy, Initial residual = 0.0112461, Final residual = 2.71957e-08, No Iterations 9
smoothSolver:  Solving for O2, Initial residual = 0.018412, Final residual = 2.87163e-08, No Iterations 10
max of O2 = 0.23301
min of O2 = 0
smoothSolver:  Solving for H2O, Initial residual = 0.018412, Final residual = 2.87163e-08, No Iterations 10
max of H2O = 1
min of H2O = 0
max of N2 = 0.76699
min of N2 = 0
DILUPBiCG:  Solving for hs, Initial residual = 0.0184121, Final residual = 2.39867e-08, No Iterations 3
GAMG:  Solving for p_rgh, Initial residual = 0.044277, Final residual = 0.000344452, No Iterations 4
diagonal:  Solving for rho, Initial residual = 0, Final residual = 0, No Iterations 0
time step continuity errors : sum local = 1.33705e-06, global = -1.50548e-07, cumulative = 7.43021e-05
GAMG:  Solving for p_rgh, Initial residual = 0.00542125, Final residual = 7.13328e-08, No Iterations 13
diagonal:  Solving for rho, Initial residual = 0, Final residual = 0, No Iterations 0
time step continuity errors : sum local = 3.14126e-10, global = -4.97559e-11, cumulative = 7.43021e-05
smoothSolver:  Solving for k, Initial residual = 0.0464481, Final residual = 5.81866e-08, No Iterations 9
ExecutionTime = 0.19 s  ClockTime = 0 s

Courant Number mean: 0.225492 max: 0.961538
deltaT = 0.00192308
Time = 0.0288462

diagonal:  Solving for rho, Initial residual = 0, Final residual = 0, No Iterations 0
smoothSolver:  Solving for Ux, Initial residual = 0.00691998, Final residual = 4.82633e-08, No Iterations 8
smoothSolver:  Solving for Uy, Initial residual = 0.0105925, Final residual = 3.01353e-08, No Iterations 9
smoothSolver:  Solving for O2, Initial residual = 0.0173377, Final residual = 2.92562e-08, No Iterations 10
max of O2 = 0.23301
min of O2 = 0
smoothSolver:  Solving for H2O, Initial residual = 0.0173377, Final residual = 2.92562e-08, No Iterations 10
max of H2O = 1
min of H2O = 0
max of N2 = 0.76699
min of N2 = 0
DILUPBiCG:  Solving for hs, Initial residual = 0.0173378, Final residual = 2.2206e-08, No Iterations 3
GAMG:  Solving for p_rgh, Initial residual = 0.0375675, Final residual = 0.000161421, No Iterations 5
diagonal:  Solving for rho, Initial residual = 0, Final residual = 0, No Iterations 0
time step continuity errors : sum local = 6.32616e-07, global = 2.57683e-07, cumulative = 7.45598e-05
GAMG:  Solving for p_rgh, Initial residual = 0.00485289, Final residual = 8.40596e-08, No Iterations 14
diagonal:  Solving for rho, Initial residual = 0, Final residual = 0, No Iterations 0
time step continuity errors : sum local = 3.4527e-10, global = 6.61775e-11, cumulative = 7.45598e-05
smoothSolver:  Solving for k, Initial residual = 0.0450842, Final residual = 6.50358e-08, No Iterations 9
ExecutionTime = 0.2 s  ClockTime = 0 s

Courant Number mean: 0.228357 max: 0.961538
deltaT = 0.00192308
Time = 0.0307692

diagonal:  Solving for rho, Initial residual = 0, Final residual = 0, No Iterations 0
smoothSolver:  Solving for Ux, Initial residual = 0.00657848, Final residual = 4.23271e-08, No Iterations 8
smoothSolver:  Solving for Uy, Initial residual = 0.0102067, Final residual = 2.37288e-08, No Iterations 9
smoothSolver:  Solving for O2, Initial residual = 0.0163897, Final residual = 2.96599e-08, No Iterations 10
max of O2 = 0.23301
min of O2 = 0
smoothSolver:  Solving for H2O, Initial residual = 0.0163897, Final residual = 2.96599e-08, No Iterations 10
max of H2O = 1
min of H2O = 0
max of N2 = 0.76699
min of N2 = 0
DILUPBiCG:  Solving for hs, Initial residual = 0.0163898, Final residual = 2.07189e-08, No Iterations 3
GAMG:  Solving for p_rgh, Initial residual = 0.0519193, Final residual = 0.000232512, No Iterations 4
diagonal:  Solving for rho, Initial residual = 0, Final residual = 0, No Iterations 0
time step continuity errors : sum local = 9.27687e-07, global = 2.40333e-08, cumulative = 7.45839e-05
GAMG:  Solving for p_rgh, Initial residual = 0.00681294, Final residual = 7.20497e-08, No Iterations 13
diagonal:  Solving for rho, Initial residual = 0, Final residual = 0, No Iterations 0
time step continuity errors : sum local = 3.33212e-10, global = -9.2578e-11, cumulative = 7.45838e-05
smoothSolver:  Solving for k, Initial residual = 0.045419, Final residual = 6.33661e-08, No Iterations 9
ExecutionTime = 0.21 s  ClockTime = 0 s

Courant Number mean: 0.231062 max: 0.961538
deltaT = 0.00192308
Time = 0.0326923

diagonal:  Solving for rho, Initial residual = 0, Final residual = 0, No Iterations 0
smoothSolver:  Solving for Ux, Initial residual = 0.00613018, Final residual = 4.26032e-08, No Iterations 8
smoothSolver:  Solving for Uy, Initial residual = 0.00954783, Final residual = 2.48811e-08, No Iterations 9
smoothSolver:  Solving for O2, Initial residual = 0.0155456, Final residual = 2.99377e-08, No Iterations 10
max of O2 = 0.23301
min of O2 = 0
smoothSolver:  Solving for H2O, Initial residual = 0.0155456, Final residual = 2.99377e-08, No Iterations 10
max of H2O = 1
min of H2O = 0
max of N2 = 0.76699
min of N2 = 0
DILUPBiCG:  Solving for hs, Initial residual = 0.0155457, Final residual = 1.95783e-08, No Iterations 3
GAMG:  Solving for p_rgh, Initial residual = 0.0394016, Final residual = 0.000287622, No Iterations 4
diagonal:  Solving for rho, Initial residual = 0, Final residual = 0, No Iterations 0
time step continuity errors : sum local = 1.14958e-06, global = -6.43875e-09, cumulative = 7.45773e-05
GAMG:  Solving for p_rgh, Initial residual = 0.00508701, Final residual = 6.72739e-08, No Iterations 13
diagonal:  Solving for rho, Initial residual = 0, Final residual = 0, No Iterations 0
time step continuity errors : sum local = 2.9962e-10, global = -7.57413e-11, cumulative = 7.45773e-05
smoothSolver:  Solving for k, Initial residual = 0.0448933, Final residual = 6.22676e-08, No Iterations 9
ExecutionTime = 0.22 s  ClockTime = 0 s

Courant Number mean: 0.233626 max: 0.961538
deltaT = 0.00192308
Time = 0.0346154

diagonal:  Solving for rho, Initial residual = 0, Final residual = 0, No Iterations 0
smoothSolver:  Solving for Ux, Initial residual = 0.00579641, Final residual = 3.82349e-08, No Iterations 8
smoothSolver:  Solving for Uy, Initial residual = 0.00913848, Final residual = 9.53588e-08, No Iterations 8
smoothSolver:  Solving for O2, Initial residual = 0.0147869, Final residual = 3.01084e-08, No Iterations 10
max of O2 = 0.23301
min of O2 = 0
smoothSolver:  Solving for H2O, Initial residual = 0.0147869, Final residual = 3.01084e-08, No Iterations 10
max of H2O = 1
min of H2O = 0
max of N2 = 0.76699
min of N2 = 0
DILUPBiCG:  Solving for hs, Initial residual = 0.014787, Final residual = 1.90274e-08, No Iterations 3
GAMG:  Solving for p_rgh, Initial residual = 0.0486657, Final residual = 0.000227465, No Iterations 4
diagonal:  Solving for rho, Initial residual = 0, Final residual = 0, No Iterations 0
time step continuity errors : sum local = 9.10428e-07, global = -1.35988e-07, cumulative = 7.44413e-05
GAMG:  Solving for p_rgh, Initial residual = 0.00590802, Final residual = 6.39104e-08, No Iterations 13
diagonal:  Solving for rho, Initial residual = 0, Final residual = 0, No Iterations 0
time step continuity errors : sum local = 3.09557e-10, global = -6.27179e-11, cumulative = 7.44412e-05
smoothSolver:  Solving for k, Initial residual = 0.0444662, Final residual = 6.91196e-08, No Iterations 9
ExecutionTime = 0.23 s  ClockTime = 0 s

Courant Number mean: 0.236057 max: 0.961538
deltaT = 0.00192308
Time = 0.0365385

diagonal:  Solving for rho, Initial residual = 0, Final residual = 0, No Iterations 0
smoothSolver:  Solving for Ux, Initial residual = 0.00546014, Final residual = 3.72093e-08, No Iterations 8
smoothSolver:  Solving for Uy, Initial residual = 0.00859843, Final residual = 9.36919e-08, No Iterations 8
smoothSolver:  Solving for O2, Initial residual = 0.0140961, Final residual = 3.01689e-08, No Iterations 10
max of O2 = 0.23301
min of O2 = 0
smoothSolver:  Solving for H2O, Initial residual = 0.0140961, Final residual = 3.01689e-08, No Iterations 10
max of H2O = 1
min of H2O = 0
max of N2 = 0.76699
min of N2 = 0
DILUPBiCG:  Solving for hs, Initial residual = 0.0140962, Final residual = 1.83357e-08, No Iterations 3
GAMG:  Solving for p_rgh, Initial residual = 0.0370976, Final residual = 0.000222723, No Iterations 4
diagonal:  Solving for rho, Initial residual = 0, Final residual = 0, No Iterations 0
time step continuity errors : sum local = 9.02031e-07, global = 1.9012e-09, cumulative = 7.44431e-05
GAMG:  Solving for p_rgh, Initial residual = 0.00489302, Final residual = 9.59552e-08, No Iterations 12
diagonal:  Solving for rho, Initial residual = 0, Final residual = 0, No Iterations 0
time step continuity errors : sum local = 4.17134e-10, global = 6.35848e-11, cumulative = 7.44432e-05
smoothSolver:  Solving for k, Initial residual = 0.0454589, Final residual = 6.36933e-08, No Iterations 9
ExecutionTime = 0.24 s  ClockTime = 0 s

Courant Number mean: 0.23835 max: 0.961538
deltaT = 0.00192308
Time = 0.0384615

diagonal:  Solving for rho, Initial residual = 0, Final residual = 0, No Iterations 0
smoothSolver:  Solving for Ux, Initial residual = 0.00511227, Final residual = 3.55396e-08, No Iterations 8
smoothSolver:  Solving for Uy, Initial residual = 0.00814935, Final residual = 8.75595e-08, No Iterations 8
smoothSolver:  Solving for O2, Initial residual = 0.0134645, Final residual = 3.01415e-08, No Iterations 10
max of O2 = 0.23301
min of O2 = 0
smoothSolver:  Solving for H2O, Initial residual = 0.0134645, Final residual = 3.01415e-08, No Iterations 10
max of H2O = 1
min of H2O = 0
max of N2 = 0.76699
min of N2 = 0
DILUPBiCG:  Solving for hs, Initial residual = 0.0134645, Final residual = 1.73524e-08, No Iterations 3
GAMG:  Solving for p_rgh, Initial residual = 0.0463431, Final residual = 0.000423024, No Iterations 3
diagonal:  Solving for rho, Initial residual = 0, Final residual = 0, No Iterations 0
time step continuity errors : sum local = 1.72378e-06, global = 6.24439e-07, cumulative = 7.50676e-05
GAMG:  Solving for p_rgh, Initial residual = 0.00568482, Final residual = 7.36537e-08, No Iterations 12
diagonal:  Solving for rho, Initial residual = 0, Final residual = 0, No Iterations 0
time step continuity errors : sum local = 3.52787e-10, global = -5.04706e-11, cumulative = 7.50676e-05
smoothSolver:  Solving for k, Initial residual = 0.0455859, Final residual = 6.58126e-08, No Iterations 9
ExecutionTime = 0.25 s  ClockTime = 0 s

Courant Number mean: 0.240518 max: 0.961538
deltaT = 0.00192308
Time = 0.0403846

diagonal:  Solving for rho, Initial residual = 0, Final residual = 0, No Iterations 0
smoothSolver:  Solving for Ux, Initial residual = 0.00477955, Final residual = 3.20885e-08, No Iterations 8
smoothSolver:  Solving for Uy, Initial residual = 0.00748339, Final residual = 7.73512e-08, No Iterations 8
smoothSolver:  Solving for O2, Initial residual = 0.012884, Final residual = 3.00375e-08, No Iterations 10
max of O2 = 0.23301
min of O2 = 0
smoothSolver:  Solving for H2O, Initial residual = 0.012884, Final residual = 3.00375e-08, No Iterations 10
max of H2O = 1
min of H2O = 0
max of N2 = 0.76699
min of N2 = 0
DILUPBiCG:  Solving for hs, Initial residual = 0.012884, Final residual = 1.55776e-08, No Iterations 3
GAMG:  Solving for p_rgh, Initial residual = 0.0393881, Final residual = 0.000211941, No Iterations 4
diagonal:  Solving for rho, Initial residual = 0, Final residual = 0, No Iterations 0
time step continuity errors : sum local = 8.76279e-07, global = 6.39375e-08, cumulative = 7.51315e-05
GAMG:  Solving for p_rgh, Initial residual = 0.00604411, Final residual = 9.66141e-08, No Iterations 12
diagonal:  Solving for rho, Initial residual = 0, Final residual = 0, No Iterations 0
time step continuity errors : sum local = 4.06068e-10, global = 6.15164e-11, cumulative = 7.51316e-05
smoothSolver:  Solving for k, Initial residual = 0.0461193, Final residual = 7.50419e-08, No Iterations 9
ExecutionTime = 0.26 s  ClockTime = 0 s

Courant Number mean: 0.24255 max: 0.961538
deltaT = 0.00192308
Time = 0.0423077

diagonal:  Solving for rho, Initial residual = 0, Final residual = 0, No Iterations 0
smoothSolver:  Solving for Ux, Initial residual = 0.00446487, Final residual = 3.04868e-08, No Iterations 8
smoothSolver:  Solving for Uy, Initial residual = 0.00710788, Final residual = 7.85236e-08, No Iterations 8
smoothSolver:  Solving for O2, Initial residual = 0.0123453, Final residual = 2.98616e-08, No Iterations 10
max of O2 = 0.23301
min of O2 = 0
smoothSolver:  Solving for H2O, Initial residual = 0.0123453, Final residual = 2.98616e-08, No Iterations 10
max of H2O = 1
min of H2O = 0
max of N2 = 0.76699
min of N2 = 0
DILUPBiCG:  Solving for hs, Initial residual = 0.0123453, Final residual = 1.46665e-08, No Iterations 3
GAMG:  Solving for p_rgh, Initial residual = 0.0290251, Final residual = 0.000230473, No Iterations 4
diagonal:  Solving for rho, Initial residual = 0, Final residual = 0, No Iterations 0
time step continuity errors : sum local = 9.46433e-07, global = -1.42484e-07, cumulative = 7.49891e-05
GAMG:  Solving for p_rgh, Initial residual = 0.00372706, Final residual = 9.38843e-08, No Iterations 12
diagonal:  Solving for rho, Initial residual = 0, Final residual = 0, No Iterations 0
time step continuity errors : sum local = 4.34441e-10, global = -1.24414e-10, cumulative = 7.4989e-05
smoothSolver:  Solving for k, Initial residual = 0.0472656, Final residual = 6.25713e-08, No Iterations 9
ExecutionTime = 0.27 s  ClockTime = 0 s

Courant Number mean: 0.244462 max: 0.961538
deltaT = 0.00192308
Time = 0.0442308

diagonal:  Solving for rho, Initial residual = 0, Final residual = 0, No Iterations 0
smoothSolver:  Solving for Ux, Initial residual = 0.00425217, Final residual = 3.03972e-08, No Iterations 8
smoothSolver:  Solving for Uy, Initial residual = 0.00688423, Final residual = 7.8388e-08, No Iterations 8
smoothSolver:  Solving for O2, Initial residual = 0.0118438, Final residual = 2.96299e-08, No Iterations 10
max of O2 = 0.23301
min of O2 = 0
smoothSolver:  Solving for H2O, Initial residual = 0.0118438, Final residual = 2.96299e-08, No Iterations 10
max of H2O = 1
min of H2O = 0
max of N2 = 0.76699
min of N2 = 0
DILUPBiCG:  Solving for hs, Initial residual = 0.0118439, Final residual = 1.3977e-08, No Iterations 3
GAMG:  Solving for p_rgh, Initial residual = 0.0253384, Final residual = 0.000178599, No Iterations 4
diagonal:  Solving for rho, Initial residual = 0, Final residual = 0, No Iterations 0
time step continuity errors : sum local = 7.37812e-07, global = 8.9732e-08, cumulative = 7.50787e-05
GAMG:  Solving for p_rgh, Initial residual = 0.00373078, Final residual = 7.90012e-08, No Iterations 12
diagonal:  Solving for rho, Initial residual = 0, Final residual = 0, No Iterations 0
time step continuity errors : sum local = 3.58327e-10, global = -9.39263e-11, cumulative = 7.50786e-05
smoothSolver:  Solving for k, Initial residual = 0.0474109, Final residual = 6.99626e-08, No Iterations 9
ExecutionTime = 0.28 s  ClockTime = 0 s

Courant Number mean: 0.246259 max: 0.961538
deltaT = 0.00192308
Time = 0.0461538

diagonal:  Solving for rho, Initial residual = 0, Final residual = 0, No Iterations 0
smoothSolver:  Solving for Ux, Initial residual = 0.00400703, Final residual = 2.58477e-08, No Iterations 8
smoothSolver:  Solving for Uy, Initial residual = 0.00630382, Final residual = 6.7443e-08, No Iterations 8
smoothSolver:  Solving for O2, Initial residual = 0.0113728, Final residual = 2.93457e-08, No Iterations 10
max of O2 = 0.23301
min of O2 = 0
smoothSolver:  Solving for H2O, Initial residual = 0.0113728, Final residual = 2.93457e-08, No Iterations 10
max of H2O = 1
min of H2O = 0
max of N2 = 0.76699
min of N2 = 0
DILUPBiCG:  Solving for hs, Initial residual = 0.0113728, Final residual = 1.34384e-08, No Iterations 3
GAMG:  Solving for p_rgh, Initial residual = 0.0247685, Final residual = 0.000166047, No Iterations 4
diagonal:  Solving for rho, Initial residual = 0, Final residual = 0, No Iterations 0
time step continuity errors : sum local = 6.90911e-07, global = 7.77977e-08, cumulative = 7.51564e-05
GAMG:  Solving for p_rgh, Initial residual = 0.00329955, Final residual = 9.46394e-08, No Iterations 11
diagonal:  Solving for rho, Initial residual = 0, Final residual = 0, No Iterations 0
time step continuity errors : sum local = 4.48003e-10, global = -9.50238e-11, cumulative = 7.51563e-05
smoothSolver:  Solving for k, Initial residual = 0.048391, Final residual = 7.55571e-08, No Iterations 9
ExecutionTime = 0.29 s  ClockTime = 0 s

Courant Number mean: 0.247943 max: 0.961538
deltaT = 0.00192308
Time = 0.0480769

diagonal:  Solving for rho, Initial residual = 0, Final residual = 0, No Iterations 0
smoothSolver:  Solving for Ux, Initial residual = 0.00378141, Final residual = 2.52998e-08, No Iterations 8
smoothSolver:  Solving for Uy, Initial residual = 0.00586613, Final residual = 6.32334e-08, No Iterations 8
smoothSolver:  Solving for O2, Initial residual = 0.0109338, Final residual = 2.90312e-08, No Iterations 10
max of O2 = 0.23301
min of O2 = 0
smoothSolver:  Solving for H2O, Initial residual = 0.0109338, Final residual = 2.90312e-08, No Iterations 10
max of H2O = 1
min of H2O = 0
max of N2 = 0.76699
min of N2 = 0
DILUPBiCG:  Solving for hs, Initial residual = 0.0109338, Final residual = 1.30496e-08, No Iterations 3
GAMG:  Solving for p_rgh, Initial residual = 0.022177, Final residual = 0.00013433, No Iterations 4
diagonal:  Solving for rho, Initial residual = 0, Final residual = 0, No Iterations 0
time step continuity errors : sum local = 5.62201e-07, global = 4.50215e-08, cumulative = 7.52013e-05
GAMG:  Solving for p_rgh, Initial residual = 0.0029454, Final residual = 7.78994e-08, No Iterations 12
diagonal:  Solving for rho, Initial residual = 0, Final residual = 0, No Iterations 0
time step continuity errors : sum local = 3.82093e-10, global = -1.12846e-10, cumulative = 7.52012e-05
smoothSolver:  Solving for k, Initial residual = 0.0491738, Final residual = 6.50762e-08, No Iterations 9
ExecutionTime = 0.3 s  ClockTime = 0 s

Courant Number mean: 0.249516 max: 0.961538
deltaT = 0.00192308
Time = 0.05

diagonal:  Solving for rho, Initial residual = 0, Final residual = 0, No Iterations 0
smoothSolver:  Solving for Ux, Initial residual = 0.0035719, Final residual = 9.83067e-08, No Iterations 7
smoothSolver:  Solving for Uy, Initial residual = 0.00551656, Final residual = 5.19533e-08, No Iterations 8
smoothSolver:  Solving for O2, Initial residual = 0.010518, Final residual = 2.86779e-08, No Iterations 10
max of O2 = 0.23301
min of O2 = 0
smoothSolver:  Solving for H2O, Initial residual = 0.010518, Final residual = 2.86779e-08, No Iterations 10
max of H2O = 1
min of H2O = 0
max of N2 = 0.76699
min of N2 = 0
DILUPBiCG:  Solving for hs, Initial residual = 0.0105181, Final residual = 1.2723e-08, No Iterations 3
GAMG:  Solving for p_rgh, Initial residual = 0.0242674, Final residual = 0.000124394, No Iterations 4
diagonal:  Solving for rho, Initial residual = 0, Final residual = 0, No Iterations 0
time step continuity errors : sum local = 5.25229e-07, global = 1.27264e-07, cumulative = 7.53285e-05
GAMG:  Solving for p_rgh, Initial residual = 0.00292488, Final residual = 6.23058e-08, No Iterations 12
diagonal:  Solving for rho, Initial residual = 0, Final residual = 0, No Iterations 0
time step continuity errors : sum local = 3.15257e-10, global = -7.22165e-11, cumulative = 7.53284e-05
smoothSolver:  Solving for k, Initial residual = 0.0493695, Final residual = 7.1536e-08, No Iterations 9
ExecutionTime = 0.32 s  ClockTime = 0 s

Courant Number mean: 0.250982 max: 0.961538
deltaT = 0.00192308
Time = 0.0519231

diagonal:  Solving for rho, Initial residual = 0, Final residual = 0, No Iterations 0
smoothSolver:  Solving for Ux, Initial residual = 0.00339142, Final residual = 9.31693e-08, No Iterations 7
smoothSolver:  Solving for Uy, Initial residual = 0.00508109, Final residual = 4.52153e-08, No Iterations 8
smoothSolver:  Solving for O2, Initial residual = 0.0101203, Final residual = 9.93226e-08, No Iterations 9
max of O2 = 0.23301
min of O2 = 0
smoothSolver:  Solving for H2O, Initial residual = 0.0101203, Final residual = 9.93226e-08, No Iterations 9
max of H2O = 1
min of H2O = 0
max of N2 = 0.76699
min of N2 = 0
DILUPBiCG:  Solving for hs, Initial residual = 0.0101203, Final residual = 1.24538e-08, No Iterations 3
GAMG:  Solving for p_rgh, Initial residual = 0.0189108, Final residual = 0.000130933, No Iterations 4
diagonal:  Solving for rho, Initial residual = 0, Final residual = 0, No Iterations 0
time step continuity errors : sum local = 5.54093e-07, global = 2.0941e-07, cumulative = 7.55378e-05
GAMG:  Solving for p_rgh, Initial residual = 0.00293816, Final residual = 8.00599e-08, No Iterations 12
diagonal:  Solving for rho, Initial residual = 0, Final residual = 0, No Iterations 0
time step continuity errors : sum local = 3.80499e-10, global = -1.00873e-10, cumulative = 7.55377e-05
smoothSolver:  Solving for k, Initial residual = 0.0499956, Final residual = 7.16995e-08, No Iterations 9
ExecutionTime = 0.33 s  ClockTime = 0 s

Courant Number mean: 0.252348 max: 0.961538
deltaT = 0.00192308
Time = 0.0538462

diagonal:  Solving for rho, Initial residual = 0, Final residual = 0, No Iterations 0
smoothSolver:  Solving for Ux, Initial residual = 0.00323252, Final residual = 9.44604e-08, No Iterations 7
smoothSolver:  Solving for Uy, Initial residual = 0.0047244, Final residual = 4.51101e-08, No Iterations 8
smoothSolver:  Solving for O2, Initial residual = 0.00974436, Final residual = 9.74987e-08, No Iterations 9
max of O2 = 0.23301
min of O2 = 0
smoothSolver:  Solving for H2O, Initial residual = 0.00974436, Final residual = 9.74987e-08, No Iterations 9
max of H2O = 1
min of H2O = 0
max of N2 = 0.76699
min of N2 = 0
DILUPBiCG:  Solving for hs, Initial residual = 0.00974438, Final residual = 1.22122e-08, No Iterations 3
GAMG:  Solving for p_rgh, Initial residual = 0.0173723, Final residual = 0.000126345, No Iterations 4
diagonal:  Solving for rho, Initial residual = 0, Final residual = 0, No Iterations 0
time step continuity errors : sum local = 5.33245e-07, global = -2.59793e-08, cumulative = 7.55117e-05
GAMG:  Solving for p_rgh, Initial residual = 0.00245355, Final residual = 9.83601e-08, No Iterations 12
diagonal:  Solving for rho, Initial residual = 0, Final residual = 0, No Iterations 0
time step continuity errors : sum local = 4.44413e-10, global = -1.47282e-10, cumulative = 7.55116e-05
smoothSolver:  Solving for k, Initial residual = 0.0501102, Final residual = 6.44518e-08, No Iterations 9
ExecutionTime = 0.34 s  ClockTime = 0 s

Courant Number mean: 0.253618 max: 0.961538
deltaT = 0.00192308
Time = 0.0557692

diagonal:  Solving for rho, Initial residual = 0, Final residual = 0, No Iterations 0
smoothSolver:  Solving for Ux, Initial residual = 0.00306386, Final residual = 8.15815e-08, No Iterations 7
smoothSolver:  Solving for Uy, Initial residual = 0.00443493, Final residual = 3.75005e-08, No Iterations 8
smoothSolver:  Solving for O2, Initial residual = 0.00938797, Final residual = 9.56568e-08, No Iterations 9
max of O2 = 0.23301
min of O2 = 0
smoothSolver:  Solving for H2O, Initial residual = 0.00938797, Final residual = 9.56568e-08, No Iterations 9
max of H2O = 1
min of H2O = 0
max of N2 = 0.76699
min of N2 = 0
DILUPBiCG:  Solving for hs, Initial residual = 0.00938799, Final residual = 1.17984e-08, No Iterations 3
GAMG:  Solving for p_rgh, Initial residual = 0.0211753, Final residual = 0.000117594, No Iterations 4
diagonal:  Solving for rho, Initial residual = 0, Final residual = 0, No Iterations 0
time step continuity errors : sum local = 5.00385e-07, global = 4.06013e-08, cumulative = 7.55522e-05
GAMG:  Solving for p_rgh, Initial residual = 0.00246523, Final residual = 8.24128e-08, No Iterations 11
diagonal:  Solving for rho, Initial residual = 0, Final residual = 0, No Iterations 0
time step continuity errors : sum local = 4.01471e-10, global = 5.26712e-11, cumulative = 7.55522e-05
smoothSolver:  Solving for k, Initial residual = 0.0500929, Final residual = 6.66463e-08, No Iterations 9
ExecutionTime = 0.35 s  ClockTime = 0 s

Courant Number mean: 0.254793 max: 0.961538
deltaT = 0.00192308
Time = 0.0576923

diagonal:  Solving for rho, Initial residual = 0, Final residual = 0, No Iterations 0
smoothSolver:  Solving for Ux, Initial residual = 0.00291855, Final residual = 7.72232e-08, No Iterations 7
smoothSolver:  Solving for Uy, Initial residual = 0.00415592, Final residual = 3.6266e-08, No Iterations 8
smoothSolver:  Solving for O2, Initial residual = 0.00904522, Final residual = 9.37706e-08, No Iterations 9
max of O2 = 0.23301
min of O2 = 0
smoothSolver:  Solving for H2O, Initial residual = 0.00904522, Final residual = 9.37706e-08, No Iterations 9
max of H2O = 1
min of H2O = 0
max of N2 = 0.76699
min of N2 = 0
DILUPBiCG:  Solving for hs, Initial residual = 0.00904523, Final residual = 1.14077e-08, No Iterations 3
GAMG:  Solving for p_rgh, Initial residual = 0.0120814, Final residual = 0.000114354, No Iterations 4
diagonal:  Solving for rho, Initial residual = 0, Final residual = 0, No Iterations 0
time step continuity errors : sum local = 4.87729e-07, global = 8.22812e-08, cumulative = 7.56345e-05
GAMG:  Solving for p_rgh, Initial residual = 0.00171704, Final residual = 6.6721e-08, No Iterations 12
diagonal:  Solving for rho, Initial residual = 0, Final residual = 0, No Iterations 0
time step continuity errors : sum local = 3.26223e-10, global = -9.47934e-11, cumulative = 7.56344e-05
smoothSolver:  Solving for k, Initial residual = 0.0496435, Final residual = 6.81753e-08, No Iterations 9
ExecutionTime = 0.36 s  ClockTime = 0 s

Courant Number mean: 0.25588 max: 0.961538
deltaT = 0.00192308
Time = 0.0596154

diagonal:  Solving for rho, Initial residual = 0, Final residual = 0, No Iterations 0
smoothSolver:  Solving for Ux, Initial residual = 0.00278413, Final residual = 7.1533e-08, No Iterations 7
smoothSolver:  Solving for Uy, Initial residual = 0.00390592, Final residual = 3.36427e-08, No Iterations 8
smoothSolver:  Solving for O2, Initial residual = 0.00871264, Final residual = 9.18236e-08, No Iterations 9
max of O2 = 0.23301
min of O2 = 0
smoothSolver:  Solving for H2O, Initial residual = 0.00871264, Final residual = 9.18236e-08, No Iterations 9
max of H2O = 1
min of H2O = 0
max of N2 = 0.76699
min of N2 = 0
DILUPBiCG:  Solving for hs, Initial residual = 0.00871265, Final residual = 1.10885e-08, No Iterations 3
GAMG:  Solving for p_rgh, Initial residual = 0.0175702, Final residual = 0.000144633, No Iterations 4
diagonal:  Solving for rho, Initial residual = 0, Final residual = 0, No Iterations 0
time step continuity errors : sum local = 6.18591e-07, global = -1.09479e-07, cumulative = 7.55249e-05
GAMG:  Solving for p_rgh, Initial residual = 0.0022075, Final residual = 8.40067e-08, No Iterations 12
diagonal:  Solving for rho, Initial residual = 0, Final residual = 0, No Iterations 0
time step continuity errors : sum local = 3.94459e-10, global = -1.20051e-10, cumulative = 7.55248e-05
smoothSolver:  Solving for k, Initial residual = 0.0485115, Final residual = 5.91899e-08, No Iterations 9
ExecutionTime = 0.38 s  ClockTime = 0 s

Courant Number mean: 0.256877 max: 0.961538
deltaT = 0.00192308
Time = 0.0615385

diagonal:  Solving for rho, Initial residual = 0, Final residual = 0, No Iterations 0
smoothSolver:  Solving for Ux, Initial residual = 0.00263852, Final residual = 6.84906e-08, No Iterations 7
smoothSolver:  Solving for Uy, Initial residual = 0.00365415, Final residual = 3.29441e-08, No Iterations 8
smoothSolver:  Solving for O2, Initial residual = 0.00839475, Final residual = 8.98765e-08, No Iterations 9
max of O2 = 0.23301
min of O2 = 0
smoothSolver:  Solving for H2O, Initial residual = 0.00839475, Final residual = 8.98765e-08, No Iterations 9
max of H2O = 1
min of H2O = 0
max of N2 = 0.76699
min of N2 = 0
DILUPBiCG:  Solving for hs, Initial residual = 0.00839476, Final residual = 1.06634e-08, No Iterations 3
GAMG:  Solving for p_rgh, Initial residual = 0.0115983, Final residual = 8.22741e-05, No Iterations 4
diagonal:  Solving for rho, Initial residual = 0, Final residual = 0, No Iterations 0
time step continuity errors : sum local = 3.54159e-07, global = 4.73804e-08, cumulative = 7.55722e-05
GAMG:  Solving for p_rgh, Initial residual = 0.00152848, Final residual = 6.15704e-08, No Iterations 12
diagonal:  Solving for rho, Initial residual = 0, Final residual = 0, No Iterations 0
time step continuity errors : sum local = 3.2621e-10, global = -6.41432e-11, cumulative = 7.55721e-05
smoothSolver:  Solving for k, Initial residual = 0.0471142, Final residual = 6.58347e-08, No Iterations 9
ExecutionTime = 0.39 s  ClockTime = 0 s

Courant Number mean: 0.257796 max: 0.961538
deltaT = 0.00192308
Time = 0.0634615

diagonal:  Solving for rho, Initial residual = 0, Final residual = 0, No Iterations 0
smoothSolver:  Solving for Ux, Initial residual = 0.00253388, Final residual = 5.98971e-08, No Iterations 7
smoothSolver:  Solving for Uy, Initial residual = 0.00342087, Final residual = 2.80241e-08, No Iterations 8
smoothSolver:  Solving for O2, Initial residual = 0.0080922, Final residual = 8.79584e-08, No Iterations 9
max of O2 = 0.23301
min of O2 = 0
smoothSolver:  Solving for H2O, Initial residual = 0.0080922, Final residual = 8.79584e-08, No Iterations 9
max of H2O = 1
min of H2O = 0
max of N2 = 0.76699
min of N2 = 0
DILUPBiCG:  Solving for hs, Initial residual = 0.00809221, Final residual = 1.02793e-08, No Iterations 3
GAMG:  Solving for p_rgh, Initial residual = 0.0187804, Final residual = 7.9498e-05, No Iterations 4
diagonal:  Solving for rho, Initial residual = 0, Final residual = 0, No Iterations 0
time step continuity errors : sum local = 3.43115e-07, global = 3.27968e-08, cumulative = 7.56049e-05
GAMG:  Solving for p_rgh, Initial residual = 0.0021307, Final residual = 8.94856e-08, No Iterations 10
diagonal:  Solving for rho, Initial residual = 0, Final residual = 0, No Iterations 0
time step continuity errors : sum local = 4.03796e-10, global = 2.3043e-11, cumulative = 7.5605e-05
smoothSolver:  Solving for k, Initial residual = 0.0455488, Final residual = 6.16474e-08, No Iterations 9
ExecutionTime = 0.4 s  ClockTime = 0 s

Courant Number mean: 0.258641 max: 0.961538
deltaT = 0.00192308
Time = 0.0653846

diagonal:  Solving for rho, Initial residual = 0, Final residual = 0, No Iterations 0
smoothSolver:  Solving for Ux, Initial residual = 0.00243366, Final residual = 5.63991e-08, No Iterations 7
smoothSolver:  Solving for Uy, Initial residual = 0.00321774, Final residual = 2.7024e-08, No Iterations 8
smoothSolver:  Solving for O2, Initial residual = 0.00779773, Final residual = 8.60059e-08, No Iterations 9
max of O2 = 0.23301
min of O2 = 0
smoothSolver:  Solving for H2O, Initial residual = 0.00779773, Final residual = 8.60059e-08, No Iterations 9
max of H2O = 1
min of H2O = 0
max of N2 = 0.76699
min of N2 = 0
DILUPBiCG:  Solving for hs, Initial residual = 0.00779774, Final residual = 9.92944e-09, No Iterations 3
GAMG:  Solving for p_rgh, Initial residual = 0.0110567, Final residual = 8.52368e-05, No Iterations 4
diagonal:  Solving for rho, Initial residual = 0, Final residual = 0, No Iterations 0
time step continuity errors : sum local = 3.68377e-07, global = 6.1488e-08, cumulative = 7.56664e-05
GAMG:  Solving for p_rgh, Initial residual = 0.00145917, Final residual = 7.76286e-08, No Iterations 12
diagonal:  Solving for rho, Initial residual = 0, Final residual = 0, No Iterations 0
time step continuity errors : sum local = 3.8991e-10, global = -1.23353e-10, cumulative = 7.56663e-05
smoothSolver:  Solving for k, Initial residual = 0.0438081, Final residual = 4.90418e-08, No Iterations 9
ExecutionTime = 0.41 s  ClockTime = 0 s

Courant Number mean: 0.259415 max: 0.961538
deltaT = 0.00192308
Time = 0.0673077

diagonal:  Solving for rho, Initial residual = 0, Final residual = 0, No Iterations 0
smoothSolver:  Solving for Ux, Initial residual = 0.00229144, Final residual = 5.2845e-08, No Iterations 7
smoothSolver:  Solving for Uy, Initial residual = 0.00305911, Final residual = 2.55525e-08, No Iterations 8
smoothSolver:  Solving for O2, Initial residual = 0.00751145, Final residual = 8.40248e-08, No Iterations 9
max of O2 = 0.23301
min of O2 = 0
smoothSolver:  Solving for H2O, Initial residual = 0.00751145, Final residual = 8.40248e-08, No Iterations 9
max of H2O = 1
min of H2O = 0
max of N2 = 0.76699
min of N2 = 0
DILUPBiCG:  Solving for hs, Initial residual = 0.00751145, Final residual = 9.47977e-09, No Iterations 3
GAMG:  Solving for p_rgh, Initial residual = 0.0143261, Final residual = 7.16564e-05, No Iterations 4
diagonal:  Solving for rho, Initial residual = 0, Final residual = 0, No Iterations 0
time step continuity errors : sum local = 3.10165e-07, global = 2.1665e-08, cumulative = 7.5688e-05
GAMG:  Solving for p_rgh, Initial residual = 0.0015197, Final residual = 6.72785e-08, No Iterations 12
diagonal:  Solving for rho, Initial residual = 0, Final residual = 0, No Iterations 0
time step continuity errors : sum local = 3.36727e-10, global = -8.77531e-11, cumulative = 7.56879e-05
smoothSolver:  Solving for k, Initial residual = 0.0424854, Final residual = 4.72149e-08, No Iterations 9
ExecutionTime = 0.42 s  ClockTime = 0 s

Courant Number mean: 0.26012 max: 0.961538
deltaT = 0.00192308
Time = 0.0692308

diagonal:  Solving for rho, Initial residual = 0, Final residual = 0, No Iterations 0
smoothSolver:  Solving for Ux, Initial residual = 0.00220968, Final residual = 5.03632e-08, No Iterations 7
smoothSolver:  Solving for Uy, Initial residual = 0.00289904, Final residual = 2.47401e-08, No Iterations 8
smoothSolver:  Solving for O2, Initial residual = 0.00723444, Final residual = 8.20458e-08, No Iterations 9
max of O2 = 0.23301
min of O2 = 0
smoothSolver:  Solving for H2O, Initial residual = 0.00723444, Final residual = 8.20458e-08, No Iterations 9
max of H2O = 1
min of H2O = 0
max of N2 = 0.76699
min of N2 = 0
DILUPBiCG:  Solving for hs, Initial residual = 0.00723444, Final residual = 9.06277e-09, No Iterations 3
GAMG:  Solving for p_rgh, Initial residual = 0.00877236, Final residual = 7.46221e-05, No Iterations 4
diagonal:  Solving for rho, Initial residual = 0, Final residual = 0, No Iterations 0
time step continuity errors : sum local = 3.23857e-07, global = 8.54327e-08, cumulative = 7.57733e-05
GAMG:  Solving for p_rgh, Initial residual = 0.00117155, Final residual = 6.88199e-08, No Iterations 12
diagonal:  Solving for rho, Initial residual = 0, Final residual = 0, No Iterations 0
time step continuity errors : sum local = 3.48556e-10, global = -9.92439e-11, cumulative = 7.57732e-05
smoothSolver:  Solving for k, Initial residual = 0.0408622, Final residual = 4.59951e-08, No Iterations 9
ExecutionTime = 0.43 s  ClockTime = 0 s

Courant Number mean: 0.26077 max: 0.961538
deltaT = 0.00192308
Time = 0.0711538

diagonal:  Solving for rho, Initial residual = 0, Final residual = 0, No Iterations 0
smoothSolver:  Solving for Ux, Initial residual = 0.00215234, Final residual = 4.73916e-08, No Iterations 7
smoothSolver:  Solving for Uy, Initial residual = 0.00275485, Final residual = 9.44888e-08, No Iterations 7
smoothSolver:  Solving for O2, Initial residual = 0.00696925, Final residual = 8.01055e-08, No Iterations 9
max of O2 = 0.23301
min of O2 = 0
smoothSolver:  Solving for H2O, Initial residual = 0.00696925, Final residual = 8.01055e-08, No Iterations 9
max of H2O = 1
min of H2O = 0
max of N2 = 0.76699
min of N2 = 0
DILUPBiCG:  Solving for hs, Initial residual = 0.00696925, Final residual = 8.6677e-09, No Iterations 3
GAMG:  Solving for p_rgh, Initial residual = 0.0144303, Final residual = 0.000116231, No Iterations 4
diagonal:  Solving for rho, Initial residual = 0, Final residual = 0, No Iterations 0
time step continuity errors : sum local = 5.04017e-07, global = 1.13976e-07, cumulative = 7.58872e-05
GAMG:  Solving for p_rgh, Initial residual = 0.0018558, Final residual = 7.24475e-08, No Iterations 11
diagonal:  Solving for rho, Initial residual = 0, Final residual = 0, No Iterations 0
time step continuity errors : sum local = 3.2366e-10, global = -7.91671e-11, cumulative = 7.58871e-05
smoothSolver:  Solving for k, Initial residual = 0.0388317, Final residual = 3.97077e-08, No Iterations 9
ExecutionTime = 0.44 s  ClockTime = 0 s

Courant Number mean: 0.261384 max: 0.961538
deltaT = 0.00192308
Time = 0.0730769

diagonal:  Solving for rho, Initial residual = 0, Final residual = 0, No Iterations 0
smoothSolver:  Solving for Ux, Initial residual = 0.00207552, Final residual = 4.3374e-08, No Iterations 7
smoothSolver:  Solving for Uy, Initial residual = 0.0026028, Final residual = 8.97269e-08, No Iterations 7
smoothSolver:  Solving for O2, Initial residual = 0.00671379, Final residual = 7.81866e-08, No Iterations 9
max of O2 = 0.23301
min of O2 = 0
smoothSolver:  Solving for H2O, Initial residual = 0.00671379, Final residual = 7.81866e-08, No Iterations 9
max of H2O = 1
min of H2O = 0
max of N2 = 0.76699
min of N2 = 0
DILUPBiCG:  Solving for hs, Initial residual = 0.00671379, Final residual = 8.29434e-09, No Iterations 3
GAMG:  Solving for p_rgh, Initial residual = 0.0126754, Final residual = 0.000120732, No Iterations 4
diagonal:  Solving for rho, Initial residual = 0, Final residual = 0, No Iterations 0
time step continuity errors : sum local = 5.22784e-07, global = -1.0073e-07, cumulative = 7.57864e-05
GAMG:  Solving for p_rgh, Initial residual = 0.00139406, Final residual = 7.6946e-08, No Iterations 12
diagonal:  Solving for rho, Initial residual = 0, Final residual = 0, No Iterations 0
time step continuity errors : sum local = 3.8439e-10, global = -1.01001e-10, cumulative = 7.57863e-05
smoothSolver:  Solving for k, Initial residual = 0.0370798, Final residual = 3.88079e-08, No Iterations 9
ExecutionTime = 0.45 s  ClockTime = 0 s

Courant Number mean: 0.261946 max: 0.961538
deltaT = 0.00192308
Time = 0.075

diagonal:  Solving for rho, Initial residual = 0, Final residual = 0, No Iterations 0
smoothSolver:  Solving for Ux, Initial residual = 0.00196767, Final residual = 4.07931e-08, No Iterations 7
smoothSolver:  Solving for Uy, Initial residual = 0.00248753, Final residual = 8.51618e-08, No Iterations 7
smoothSolver:  Solving for O2, Initial residual = 0.00646406, Final residual = 7.62479e-08, No Iterations 9
max of O2 = 0.23301
min of O2 = 0
smoothSolver:  Solving for H2O, Initial residual = 0.00646406, Final residual = 7.62479e-08, No Iterations 9
max of H2O = 1
min of H2O = 0
max of N2 = 0.76699
min of N2 = 0
DILUPBiCG:  Solving for hs, Initial residual = 0.00646404, Final residual = 7.8338e-09, No Iterations 3
GAMG:  Solving for p_rgh, Initial residual = 0.00748752, Final residual = 7.16633e-05, No Iterations 4
diagonal:  Solving for rho, Initial residual = 0, Final residual = 0, No Iterations 0
time step continuity errors : sum local = 3.10785e-07, global = 9.42888e-08, cumulative = 7.58806e-05
GAMG:  Solving for p_rgh, Initial residual = 0.000922158, Final residual = 6.66036e-08, No Iterations 12
diagonal:  Solving for rho, Initial residual = 0, Final residual = 0, No Iterations 0
time step continuity errors : sum local = 3.40671e-10, global = -8.91876e-11, cumulative = 7.58805e-05
smoothSolver:  Solving for k, Initial residual = 0.0352265, Final residual = 3.69178e-08, No Iterations 9
ExecutionTime = 0.46 s  ClockTime = 0 s

Courant Number mean: 0.262465 max: 0.961538
deltaT = 0.00192308
Time = 0.0769231

diagonal:  Solving for rho, Initial residual = 0, Final residual = 0, No Iterations 0
smoothSolver:  Solving for Ux, Initial residual = 0.0018984, Final residual = 3.87497e-08, No Iterations 7
smoothSolver:  Solving for Uy, Initial residual = 0.00237356, Final residual = 8.17072e-08, No Iterations 7
smoothSolver:  Solving for O2, Initial residual = 0.00622038, Final residual = 7.43021e-08, No Iterations 9
max of O2 = 0.23301
min of O2 = 0
smoothSolver:  Solving for H2O, Initial residual = 0.00622038, Final residual = 7.43021e-08, No Iterations 9
max of H2O = 1
min of H2O = 0
max of N2 = 0.76699
min of N2 = 0
DILUPBiCG:  Solving for hs, Initial residual = 0.00622037, Final residual = 7.37753e-09, No Iterations 3
GAMG:  Solving for p_rgh, Initial residual = 0.0112508, Final residual = 6.75205e-05, No Iterations 4
diagonal:  Solving for rho, Initial residual = 0, Final residual = 0, No Iterations 0
time step continuity errors : sum local = 2.92628e-07, global = 3.19334e-08, cumulative = 7.59124e-05
GAMG:  Solving for p_rgh, Initial residual = 0.00110637, Final residual = 6.63602e-08, No Iterations 12
diagonal:  Solving for rho, Initial residual = 0, Final residual = 0, No Iterations 0
time step continuity errors : sum local = 3.20449e-10, global = -7.91417e-11, cumulative = 7.59124e-05
smoothSolver:  Solving for k, Initial residual = 0.0332841, Final residual = 3.09494e-08, No Iterations 9
ExecutionTime = 0.47 s  ClockTime = 0 s

Courant Number mean: 0.262937 max: 0.961538
deltaT = 0.00192308
Time = 0.0788462

diagonal:  Solving for rho, Initial residual = 0, Final residual = 0, No Iterations 0
smoothSolver:  Solving for Ux, Initial residual = 0.00183888, Final residual = 3.70022e-08, No Iterations 7
smoothSolver:  Solving for Uy, Initial residual = 0.00227661, Final residual = 7.87477e-08, No Iterations 7
smoothSolver:  Solving for O2, Initial residual = 0.00598483, Final residual = 7.23807e-08, No Iterations 9
max of O2 = 0.23301
min of O2 = 0
smoothSolver:  Solving for H2O, Initial residual = 0.00598483, Final residual = 7.23807e-08, No Iterations 9
max of H2O = 1
min of H2O = 0
max of N2 = 0.76699
min of N2 = 0
DILUPBiCG:  Solving for hs, Initial residual = 0.00598481, Final residual = 6.93703e-09, No Iterations 3
GAMG:  Solving for p_rgh, Initial residual = 0.00657658, Final residual = 3.50666e-05, No Iterations 5
diagonal:  Solving for rho, Initial residual = 0, Final residual = 0, No Iterations 0
time step continuity errors : sum local = 1.52342e-07, global = -3.6095e-08, cumulative = 7.58763e-05
GAMG:  Solving for p_rgh, Initial residual = 0.000863764, Final residual = 8.88937e-08, No Iterations 12
diagonal:  Solving for rho, Initial residual = 0, Final residual = 0, No Iterations 0
time step continuity errors : sum local = 4.10998e-10, global = -1.22018e-10, cumulative = 7.58761e-05
smoothSolver:  Solving for k, Initial residual = 0.0316487, Final residual = 2.98364e-08, No Iterations 9
ExecutionTime = 0.48 s  ClockTime = 0 s

Courant Number mean: 0.263368 max: 0.961538
deltaT = 0.00192308
Time = 0.0807692

diagonal:  Solving for rho, Initial residual = 0, Final residual = 0, No Iterations 0
smoothSolver:  Solving for Ux, Initial residual = 0.00181382, Final residual = 3.53461e-08, No Iterations 7
smoothSolver:  Solving for Uy, Initial residual = 0.00219329, Final residual = 7.24382e-08, No Iterations 7
smoothSolver:  Solving for O2, Initial residual = 0.00575844, Final residual = 7.04998e-08, No Iterations 9
max of O2 = 0.23301
min of O2 = 0
smoothSolver:  Solving for H2O, Initial residual = 0.00575844, Final residual = 7.04998e-08, No Iterations 9
max of H2O = 1
min of H2O = 0
max of N2 = 0.76699
min of N2 = 0
DILUPBiCG:  Solving for hs, Initial residual = 0.00575842, Final residual = 6.50759e-09, No Iterations 3
GAMG:  Solving for p_rgh, Initial residual = 0.0122438, Final residual = 5.91782e-05, No Iterations 5
diagonal:  Solving for rho, Initial residual = 0, Final residual = 0, No Iterations 0
time step continuity errors : sum local = 2.56684e-07, global = -7.02277e-08, cumulative = 7.58059e-05
GAMG:  Solving for p_rgh, Initial residual = 0.00161907, Final residual = 9.34014e-08, No Iterations 11
diagonal:  Solving for rho, Initial residual = 0, Final residual = 0, No Iterations 0
time step continuity errors : sum local = 4.42148e-10, global = -8.56659e-11, cumulative = 7.58058e-05
smoothSolver:  Solving for k, Initial residual = 0.0299305, Final residual = 2.51161e-08, No Iterations 9
ExecutionTime = 0.49 s  ClockTime = 0 s

Courant Number mean: 0.263768 max: 0.961538
deltaT = 0.00192308
Time = 0.0826923

diagonal:  Solving for rho, Initial residual = 0, Final residual = 0, No Iterations 0
smoothSolver:  Solving for Ux, Initial residual = 0.00172213, Final residual = 3.31238e-08, No Iterations 7
smoothSolver:  Solving for Uy, Initial residual = 0.00210092, Final residual = 7.09145e-08, No Iterations 7
smoothSolver:  Solving for O2, Initial residual = 0.00554012, Final residual = 6.86487e-08, No Iterations 9
max of O2 = 0.23301
min of O2 = 0
smoothSolver:  Solving for H2O, Initial residual = 0.00554012, Final residual = 6.86487e-08, No Iterations 9
max of H2O = 1
min of H2O = 0
max of N2 = 0.76699
min of N2 = 0
DILUPBiCG:  Solving for hs, Initial residual = 0.00554011, Final residual = 6.09835e-09, No Iterations 3
GAMG:  Solving for p_rgh, Initial residual = 0.00891504, Final residual = 5.11876e-05, No Iterations 4
diagonal:  Solving for rho, Initial residual = 0, Final residual = 0, No Iterations 0
time step continuity errors : sum local = 2.20985e-07, global = -1.28449e-08, cumulative = 7.5793e-05
GAMG:  Solving for p_rgh, Initial residual = 0.000839547, Final residual = 7.48791e-08, No Iterations 12
diagonal:  Solving for rho, Initial residual = 0, Final residual = 0, No Iterations 0
time step continuity errors : sum local = 3.79067e-10, global = -1.02057e-10, cumulative = 7.57929e-05
smoothSolver:  Solving for k, Initial residual = 0.0283233, Final residual = 2.34763e-08, No Iterations 9
ExecutionTime = 0.5 s  ClockTime = 0 s

Courant Number mean: 0.264142 max: 0.961538
deltaT = 0.00192308
Time = 0.0846154

diagonal:  Solving for rho, Initial residual = 0, Final residual = 0, No Iterations 0
smoothSolver:  Solving for Ux, Initial residual = 0.00167125, Final residual = 3.16432e-08, No Iterations 7
smoothSolver:  Solving for Uy, Initial residual = 0.00203453, Final residual = 6.76946e-08, No Iterations 7
smoothSolver:  Solving for O2, Initial residual = 0.00532831, Final residual = 6.6816e-08, No Iterations 9
max of O2 = 0.23301
min of O2 = 0
smoothSolver:  Solving for H2O, Initial residual = 0.00532831, Final residual = 6.6816e-08, No Iterations 9
max of H2O = 1
min of H2O = 0
max of N2 = 0.76699
min of N2 = 0
DILUPBiCG:  Solving for hs, Initial residual = 0.00532828, Final residual = 5.69395e-09, No Iterations 3
GAMG:  Solving for p_rgh, Initial residual = 0.00579887, Final residual = 3.18543e-05, No Iterations 5
diagonal:  Solving for rho, Initial residual = 0, Final residual = 0, No Iterations 0
time step continuity errors : sum local = 1.37414e-07, global = -3.29473e-08, cumulative = 7.57599e-05
GAMG:  Solving for p_rgh, Initial residual = 0.000748782, Final residual = 8.70157e-08, No Iterations 12
diagonal:  Solving for rho, Initial residual = 0, Final residual = 0, No Iterations 0
time step continuity errors : sum local = 3.77014e-10, global = -1.09792e-10, cumulative = 7.57598e-05
smoothSolver:  Solving for k, Initial residual = 0.0269114, Final residual = 2.32719e-08, No Iterations 9
ExecutionTime = 0.51 s  ClockTime = 0 s

Courant Number mean: 0.264484 max: 0.961538
deltaT = 0.00192308
Time = 0.0865385

diagonal:  Solving for rho, Initial residual = 0, Final residual = 0, No Iterations 0
smoothSolver:  Solving for Ux, Initial residual = 0.00162831, Final residual = 3.11441e-08, No Iterations 7
smoothSolver:  Solving for Uy, Initial residual = 0.00197046, Final residual = 6.63574e-08, No Iterations 7
smoothSolver:  Solving for O2, Initial residual = 0.00512166, Final residual = 6.49869e-08, No Iterations 9
max of O2 = 0.23301
min of O2 = 0
smoothSolver:  Solving for H2O, Initial residual = 0.00512166, Final residual = 6.49869e-08, No Iterations 9
max of H2O = 1
min of H2O = 0
max of N2 = 0.76699
min of N2 = 0
DILUPBiCG:  Solving for hs, Initial residual = 0.00512163, Final residual = 5.29716e-09, No Iterations 3
GAMG:  Solving for p_rgh, Initial residual = 0.00800813, Final residual = 6.01806e-05, No Iterations 4
diagonal:  Solving for rho, Initial residual = 0, Final residual = 0, No Iterations 0
time step continuity errors : sum local = 2.59029e-07, global = 8.20893e-08, cumulative = 7.58419e-05
GAMG:  Solving for p_rgh, Initial residual = 0.000901582, Final residual = 7.54508e-08, No Iterations 12
diagonal:  Solving for rho, Initial residual = 0, Final residual = 0, No Iterations 0
time step continuity errors : sum local = 3.6254e-10, global = -9.06168e-11, cumulative = 7.58418e-05
smoothSolver:  Solving for k, Initial residual = 0.0253925, Final residual = 9.20766e-08, No Iterations 8
ExecutionTime = 0.53 s  ClockTime = 0 s

Courant Number mean: 0.264797 max: 0.961538
deltaT = 0.00192308
Time = 0.0884615

diagonal:  Solving for rho, Initial residual = 0, Final residual = 0, No Iterations 0
smoothSolver:  Solving for Ux, Initial residual = 0.0015826, Final residual = 2.98292e-08, No Iterations 7
smoothSolver:  Solving for Uy, Initial residual = 0.00191446, Final residual = 6.43977e-08, No Iterations 7
smoothSolver:  Solving for O2, Initial residual = 0.00492128, Final residual = 6.31785e-08, No Iterations 9
max of O2 = 0.23301
min of O2 = 0
smoothSolver:  Solving for H2O, Initial residual = 0.00492128, Final residual = 6.31785e-08, No Iterations 9
max of H2O = 1
min of H2O = 0
max of N2 = 0.76699
min of N2 = 0
DILUPBiCG:  Solving for hs, Initial residual = 0.00492125, Final residual = 4.91394e-09, No Iterations 3
GAMG:  Solving for p_rgh, Initial residual = 0.00990797, Final residual = 5.73267e-05, No Iterations 4
diagonal:  Solving for rho, Initial residual = 0, Final residual = 0, No Iterations 0
time step continuity errors : sum local = 2.47063e-07, global = -3.70171e-08, cumulative = 7.58048e-05
GAMG:  Solving for p_rgh, Initial residual = 0.000948409, Final residual = 7.50621e-08, No Iterations 12
diagonal:  Solving for rho, Initial residual = 0, Final residual = 0, No Iterations 0
time step continuity errors : sum local = 3.7177e-10, global = -9.5061e-11, cumulative = 7.58047e-05
smoothSolver:  Solving for k, Initial residual = 0.0239354, Final residual = 8.91848e-08, No Iterations 8
ExecutionTime = 0.53 s  ClockTime = 0 s

Courant Number mean: 0.26508 max: 0.961538
deltaT = 0.00192308
Time = 0.0903846

diagonal:  Solving for rho, Initial residual = 0, Final residual = 0, No Iterations 0
smoothSolver:  Solving for Ux, Initial residual = 0.00158654, Final residual = 2.86873e-08, No Iterations 7
smoothSolver:  Solving for Uy, Initial residual = 0.00188182, Final residual = 5.96366e-08, No Iterations 7
smoothSolver:  Solving for O2, Initial residual = 0.00472771, Final residual = 6.14006e-08, No Iterations 9
max of O2 = 0.23301
min of O2 = 0
smoothSolver:  Solving for H2O, Initial residual = 0.00472771, Final residual = 6.14006e-08, No Iterations 9
max of H2O = 1
min of H2O = 0
max of N2 = 0.76699
min of N2 = 0
DILUPBiCG:  Solving for hs, Initial residual = 0.00472768, Final residual = 4.53614e-09, No Iterations 3
GAMG:  Solving for p_rgh, Initial residual = 0.0113151, Final residual = 0.000104447, No Iterations 4
diagonal:  Solving for rho, Initial residual = 0, Final residual = 0, No Iterations 0
time step continuity errors : sum local = 4.51229e-07, global = 8.07528e-08, cumulative = 7.58855e-05
GAMG:  Solving for p_rgh, Initial residual = 0.00140185, Final residual = 8.42202e-08, No Iterations 12
diagonal:  Solving for rho, Initial residual = 0, Final residual = 0, No Iterations 0
time step continuity errors : sum local = 3.87333e-10, global = 5.80886e-11, cumulative = 7.58855e-05
smoothSolver:  Solving for k, Initial residual = 0.0227112, Final residual = 7.79793e-08, No Iterations 8
ExecutionTime = 0.54 s  ClockTime = 0 s

Courant Number mean: 0.265344 max: 0.961538
deltaT = 0.00192308
Time = 0.0923077

diagonal:  Solving for rho, Initial residual = 0, Final residual = 0, No Iterations 0
smoothSolver:  Solving for Ux, Initial residual = 0.00148808, Final residual = 2.73405e-08, No Iterations 7
smoothSolver:  Solving for Uy, Initial residual = 0.00181393, Final residual = 5.90222e-08, No Iterations 7
smoothSolver:  Solving for O2, Initial residual = 0.00454203, Final residual = 5.96676e-08, No Iterations 9
max of O2 = 0.23301
min of O2 = 0
smoothSolver:  Solving for H2O, Initial residual = 0.00454203, Final residual = 5.96676e-08, No Iterations 9
max of H2O = 1
min of H2O = 0
max of N2 = 0.76699
min of N2 = 0
DILUPBiCG:  Solving for hs, Initial residual = 0.004542, Final residual = 4.17343e-09, No Iterations 3
GAMG:  Solving for p_rgh, Initial residual = 0.00469502, Final residual = 4.405e-05, No Iterations 5
diagonal:  Solving for rho, Initial residual = 0, Final residual = 0, No Iterations 0
time step continuity errors : sum local = 1.89649e-07, global = -5.09582e-08, cumulative = 7.58346e-05
GAMG:  Solving for p_rgh, Initial residual = 0.000589391, Final residual = 8.66191e-08, No Iterations 12
diagonal:  Solving for rho, Initial residual = 0, Final residual = 0, No Iterations 0
time step continuity errors : sum local = 3.91785e-10, global = -1.02098e-10, cumulative = 7.58345e-05
smoothSolver:  Solving for k, Initial residual = 0.0214699, Final residual = 7.38586e-08, No Iterations 8
ExecutionTime = 0.55 s  ClockTime = 0 s

Courant Number mean: 0.265601 max: 0.961538
deltaT = 0.00192308
Time = 0.0942308

diagonal:  Solving for rho, Initial residual = 0, Final residual = 0, No Iterations 0
smoothSolver:  Solving for Ux, Initial residual = 0.00145401, Final residual = 2.7197e-08, No Iterations 7
smoothSolver:  Solving for Uy, Initial residual = 0.00178602, Final residual = 5.88518e-08, No Iterations 7
smoothSolver:  Solving for O2, Initial residual = 0.00436299, Final residual = 5.79687e-08, No Iterations 9
max of O2 = 0.23301
min of O2 = 0
smoothSolver:  Solving for H2O, Initial residual = 0.00436299, Final residual = 5.79687e-08, No Iterations 9
max of H2O = 1
min of H2O = 0
max of N2 = 0.76699
min of N2 = 0
DILUPBiCG:  Solving for hs, Initial residual = 0.00436295, Final residual = 3.83173e-09, No Iterations 3
GAMG:  Solving for p_rgh, Initial residual = 0.00860704, Final residual = 6.65878e-05, No Iterations 4
diagonal:  Solving for rho, Initial residual = 0, Final residual = 0, No Iterations 0
time step continuity errors : sum local = 2.85919e-07, global = -4.08083e-08, cumulative = 7.57936e-05
GAMG:  Solving for p_rgh, Initial residual = 0.00103348, Final residual = 8.18688e-08, No Iterations 12
diagonal:  Solving for rho, Initial residual = 0, Final residual = 0, No Iterations 0
time step continuity errors : sum local = 3.77094e-10, global = -1.07179e-10, cumulative = 7.57935e-05
smoothSolver:  Solving for k, Initial residual = 0.0203801, Final residual = 7.33413e-08, No Iterations 8
ExecutionTime = 0.56 s  ClockTime = 0 s

Courant Number mean: 0.265835 max: 0.961538
deltaT = 0.00192308
Time = 0.0961538

diagonal:  Solving for rho, Initial residual = 0, Final residual = 0, No Iterations 0
smoothSolver:  Solving for Ux, Initial residual = 0.00144162, Final residual = 2.87729e-08, No Iterations 7
smoothSolver:  Solving for Uy, Initial residual = 0.00174909, Final residual = 5.78216e-08, No Iterations 7
smoothSolver:  Solving for O2, Initial residual = 0.00418956, Final residual = 5.62937e-08, No Iterations 9
max of O2 = 0.23301
min of O2 = 0
smoothSolver:  Solving for H2O, Initial residual = 0.00418956, Final residual = 5.62937e-08, No Iterations 9
max of H2O = 1
min of H2O = 0
max of N2 = 0.76699
min of N2 = 0
DILUPBiCG:  Solving for hs, Initial residual = 0.00418952, Final residual = 3.5016e-09, No Iterations 3
GAMG:  Solving for p_rgh, Initial residual = 0.00974731, Final residual = 3.97453e-05, No Iterations 4
diagonal:  Solving for rho, Initial residual = 0, Final residual = 0, No Iterations 0
time step continuity errors : sum local = 1.71405e-07, global = 8.00234e-09, cumulative = 7.58015e-05
GAMG:  Solving for p_rgh, Initial residual = 0.00135217, Final residual = 7.64562e-08, No Iterations 12
diagonal:  Solving for rho, Initial residual = 0, Final residual = 0, No Iterations 0
time step continuity errors : sum local = 3.75403e-10, global = -1.25146e-10, cumulative = 7.58014e-05
smoothSolver:  Solving for k, Initial residual = 0.0192581, Final residual = 6.36913e-08, No Iterations 8
ExecutionTime = 0.57 s  ClockTime = 0 s

Courant Number mean: 0.266049 max: 0.961538
deltaT = 0.00192308
Time = 0.0980769

diagonal:  Solving for rho, Initial residual = 0, Final residual = 0, No Iterations 0
smoothSolver:  Solving for Ux, Initial residual = 0.00148175, Final residual = 3.00833e-08, No Iterations 7
smoothSolver:  Solving for Uy, Initial residual = 0.00174195, Final residual = 5.55202e-08, No Iterations 7
[...]

Courant Number mean: 0.273324 max: 0.961538
deltaT = 0.00192308
Time = 0.476923

diagonal:  Solving for rho, Initial residual = 0, Final residual = 0, No Iterations 0
smoothSolver:  Solving for Ux, Initial residual = 8.65237e-05, Final residual = 7.624e-08, No Iterations 5
smoothSolver:  Solving for Uy, Initial residual = 0.000174787, Final residual = 3.04396e-08, No Iterations 7
smoothSolver:  Solving for O2, Initial residual = 1.42347e-06, Final residual = 3.56565e-08, No Iterations 3
max of O2 = 0.23301
min of O2 = 0
smoothSolver:  Solving for H2O, Initial residual = 1.42347e-06, Final residual = 3.56565e-08, No Iterations 3
max of H2O = 1
min of H2O = 0
max of N2 = 0.76699
min of N2 = 0
DILUPBiCG:  Solving for hs, Initial residual = 1.35872e-06, Final residual = 1.49448e-08, No Iterations 1
GAMG:  Solving for p_rgh, Initial residual = 0.00787754, Final residual = 4.35268e-05, No Iterations 4
diagonal:  Solving for rho, Initial residual = 0, Final residual = 0, No Iterations 0
time step continuity errors : sum local = 1.8697e-07, global = 1.26725e-08, cumulative = 7.69093e-05
GAMG:  Solving for p_rgh, Initial residual = 0.000960034, Final residual = 7.45745e-08, No Iterations 10
diagonal:  Solving for rho, Initial residual = 0, Final residual = 0, No Iterations 0
time step continuity errors : sum local = 3.66801e-10, global = 5.1343e-11, cumulative = 7.69093e-05
smoothSolver:  Solving for k, Initial residual = 6.14431e-05, Final residual = 5.69114e-08, No Iterations 5
ExecutionTime = 2.65 s  ClockTime = 3 s

Courant Number mean: 0.273326 max: 0.961538
deltaT = 0.00192308
Time = 0.478846

diagonal:  Solving for rho, Initial residual = 0, Final residual = 0, No Iterations 0
smoothSolver:  Solving for Ux, Initial residual = 9.33436e-05, Final residual = 6.94092e-08, No Iterations 5
smoothSolver:  Solving for Uy, Initial residual = 0.000182739, Final residual = 3.15018e-08, No Iterations 7
smoothSolver:  Solving for O2, Initial residual = 1.51872e-06, Final residual = 3.89887e-08, No Iterations 3
max of O2 = 0.23301
min of O2 = 0
smoothSolver:  Solving for H2O, Initial residual = 1.51872e-06, Final residual = 3.89887e-08, No Iterations 3
max of H2O = 1
min of H2O = 0
max of N2 = 0.76699
min of N2 = 0
DILUPBiCG:  Solving for hs, Initial residual = 1.45187e-06, Final residual = 2.03301e-08, No Iterations 1
GAMG:  Solving for p_rgh, Initial residual = 0.00944369, Final residual = 2.95678e-05, No Iterations 4
diagonal:  Solving for rho, Initial residual = 0, Final residual = 0, No Iterations 0
time step continuity errors : sum local = 1.2683e-07, global = 1.55671e-08, cumulative = 7.69249e-05
GAMG:  Solving for p_rgh, Initial residual = 0.000753838, Final residual = 7.70087e-08, No Iterations 9
diagonal:  Solving for rho, Initial residual = 0, Final residual = 0, No Iterations 0
time step continuity errors : sum local = 3.82624e-10, global = 2.3097e-11, cumulative = 7.69249e-05
smoothSolver:  Solving for k, Initial residual = 6.53115e-05, Final residual = 5.70781e-08, No Iterations 5
ExecutionTime = 2.66 s  ClockTime = 3 s

Courant Number mean: 0.273325 max: 0.961538
deltaT = 0.00192308
Time = 0.480769

diagonal:  Solving for rho, Initial residual = 0, Final residual = 0, No Iterations 0
smoothSolver:  Solving for Ux, Initial residual = 8.92531e-05, Final residual = 6.27553e-08, No Iterations 5
smoothSolver:  Solving for Uy, Initial residual = 0.000211688, Final residual = 4.04755e-08, No Iterations 7
smoothSolver:  Solving for O2, Initial residual = 1.44144e-06, Final residual = 3.66425e-08, No Iterations 3
max of O2 = 0.23301
min of O2 = 0
smoothSolver:  Solving for H2O, Initial residual = 1.44144e-06, Final residual = 3.66425e-08, No Iterations 3
max of H2O = 1
min of H2O = 0
max of N2 = 0.76699
min of N2 = 0
DILUPBiCG:  Solving for hs, Initial residual = 1.37222e-06, Final residual = 1.75267e-08, No Iterations 1
GAMG:  Solving for p_rgh, Initial residual = 0.0111435, Final residual = 4.6593e-05, No Iterations 4
diagonal:  Solving for rho, Initial residual = 0, Final residual = 0, No Iterations 0
time step continuity errors : sum local = 2.00205e-07, global = -1.26327e-08, cumulative = 7.69123e-05
GAMG:  Solving for p_rgh, Initial residual = 0.00108495, Final residual = 7.69655e-08, No Iterations 9
diagonal:  Solving for rho, Initial residual = 0, Final residual = 0, No Iterations 0
time step continuity errors : sum local = 3.93964e-10, global = 8.95157e-12, cumulative = 7.69123e-05
smoothSolver:  Solving for k, Initial residual = 6.79828e-05, Final residual = 7.14358e-08, No Iterations 5
ExecutionTime = 2.67 s  ClockTime = 3 s

Courant Number mean: 0.273331 max: 0.961538
deltaT = 0.00192308
Time = 0.482692

diagonal:  Solving for rho, Initial residual = 0, Final residual = 0, No Iterations 0
smoothSolver:  Solving for Ux, Initial residual = 8.25818e-05, Final residual = 8.60238e-08, No Iterations 5
smoothSolver:  Solving for Uy, Initial residual = 0.000208568, Final residual = 4.17046e-08, No Iterations 7
smoothSolver:  Solving for O2, Initial residual = 1.50507e-06, Final residual = 3.94797e-08, No Iterations 3
max of O2 = 0.23301
min of O2 = 0
smoothSolver:  Solving for H2O, Initial residual = 1.50507e-06, Final residual = 3.94797e-08, No Iterations 3
max of H2O = 1
min of H2O = 0
max of N2 = 0.76699
min of N2 = 0
DILUPBiCG:  Solving for hs, Initial residual = 1.43772e-06, Final residual = 6.57915e-08, No Iterations 1
GAMG:  Solving for p_rgh, Initial residual = 0.00842733, Final residual = 4.83031e-05, No Iterations 4
diagonal:  Solving for rho, Initial residual = 0, Final residual = 0, No Iterations 0
time step continuity errors : sum local = 2.08141e-07, global = -1.5793e-08, cumulative = 7.68965e-05
GAMG:  Solving for p_rgh, Initial residual = 0.00107938, Final residual = 8.1356e-08, No Iterations 10
diagonal:  Solving for rho, Initial residual = 0, Final residual = 0, No Iterations 0
time step continuity errors : sum local = 3.99734e-10, global = -8.49863e-11, cumulative = 7.68964e-05
smoothSolver:  Solving for k, Initial residual = 6.21064e-05, Final residual = 6.33031e-08, No Iterations 5
ExecutionTime = 2.68 s  ClockTime = 3 s

Courant Number mean: 0.273328 max: 0.961538
deltaT = 0.00192308
Time = 0.484615

diagonal:  Solving for rho, Initial residual = 0, Final residual = 0, No Iterations 0
smoothSolver:  Solving for Ux, Initial residual = 8.68346e-05, Final residual = 7.70279e-08, No Iterations 5
smoothSolver:  Solving for Uy, Initial residual = 0.000229117, Final residual = 4.38331e-08, No Iterations 7
smoothSolver:  Solving for O2, Initial residual = 1.20275e-06, Final residual = 9.85094e-08, No Iterations 2
max of O2 = 0.23301
min of O2 = 0
smoothSolver:  Solving for H2O, Initial residual = 1.20275e-06, Final residual = 9.85094e-08, No Iterations 2
max of H2O = 1
min of H2O = 0
max of N2 = 0.76699
min of N2 = 0
DILUPBiCG:  Solving for hs, Initial residual = 1.1394e-06, Final residual = 1.2271e-08, No Iterations 1
GAMG:  Solving for p_rgh, Initial residual = 0.0085367, Final residual = 4.36595e-05, No Iterations 4
diagonal:  Solving for rho, Initial residual = 0, Final residual = 0, No Iterations 0
time step continuity errors : sum local = 1.88895e-07, global = -6.49647e-09, cumulative = 7.68899e-05
GAMG:  Solving for p_rgh, Initial residual = 0.00112549, Final residual = 8.73968e-08, No Iterations 10
diagonal:  Solving for rho, Initial residual = 0, Final residual = 0, No Iterations 0
time step continuity errors : sum local = 4.10794e-10, global = 8.60104e-11, cumulative = 7.689e-05
smoothSolver:  Solving for k, Initial residual = 6.755e-05, Final residual = 6.72379e-08, No Iterations 5
ExecutionTime = 2.69 s  ClockTime = 3 s

Courant Number mean: 0.273332 max: 0.961538
deltaT = 0.00192308
Time = 0.486538

diagonal:  Solving for rho, Initial residual = 0, Final residual = 0, No Iterations 0
smoothSolver:  Solving for Ux, Initial residual = 0.000107601, Final residual = 9.91708e-08, No Iterations 5
smoothSolver:  Solving for Uy, Initial residual = 0.000229715, Final residual = 4.06501e-08, No Iterations 7
smoothSolver:  Solving for O2, Initial residual = 1.2183e-06, Final residual = 3.11349e-08, No Iterations 3
max of O2 = 0.23301
min of O2 = 0
smoothSolver:  Solving for H2O, Initial residual = 1.2183e-06, Final residual = 3.11349e-08, No Iterations 3
max of H2O = 1
min of H2O = 0
max of N2 = 0.76699
min of N2 = 0
DILUPBiCG:  Solving for hs, Initial residual = 1.15008e-06, Final residual = 1.55261e-08, No Iterations 1
GAMG:  Solving for p_rgh, Initial residual = 0.0114313, Final residual = 4.43144e-05, No Iterations 4
diagonal:  Solving for rho, Initial residual = 0, Final residual = 0, No Iterations 0
time step continuity errors : sum local = 1.91736e-07, global = 9.80747e-09, cumulative = 7.68998e-05
GAMG:  Solving for p_rgh, Initial residual = 0.00120651, Final residual = 9.96127e-08, No Iterations 8
diagonal:  Solving for rho, Initial residual = 0, Final residual = 0, No Iterations 0
time step continuity errors : sum local = 4.60584e-10, global = -1.78506e-11, cumulative = 7.68998e-05
smoothSolver:  Solving for k, Initial residual = 7.84568e-05, Final residual = 7.51096e-08, No Iterations 5
ExecutionTime = 2.7 s  ClockTime = 3 s

Courant Number mean: 0.27333 max: 0.961538
deltaT = 0.00192308
Time = 0.488462

diagonal:  Solving for rho, Initial residual = 0, Final residual = 0, No Iterations 0
smoothSolver:  Solving for Ux, Initial residual = 9.80127e-05, Final residual = 8.6505e-08, No Iterations 5
smoothSolver:  Solving for Uy, Initial residual = 0.000222028, Final residual = 4.27066e-08, No Iterations 7
smoothSolver:  Solving for O2, Initial residual = 1.18245e-06, Final residual = 2.97473e-08, No Iterations 3
max of O2 = 0.23301
min of O2 = 0
smoothSolver:  Solving for H2O, Initial residual = 1.18245e-06, Final residual = 2.97473e-08, No Iterations 3
max of H2O = 1
min of H2O = 0
max of N2 = 0.76699
min of N2 = 0
DILUPBiCG:  Solving for hs, Initial residual = 1.11331e-06, Final residual = 1.36736e-08, No Iterations 1
GAMG:  Solving for p_rgh, Initial residual = 0.0114788, Final residual = 0.000102182, No Iterations 3
diagonal:  Solving for rho, Initial residual = 0, Final residual = 0, No Iterations 0
time step continuity errors : sum local = 4.41385e-07, global = -5.44782e-08, cumulative = 7.68453e-05
GAMG:  Solving for p_rgh, Initial residual = 0.00107592, Final residual = 6.67132e-08, No Iterations 8
diagonal:  Solving for rho, Initial residual = 0, Final residual = 0, No Iterations 0
time step continuity errors : sum local = 3.42477e-10, global = 7.11623e-11, cumulative = 7.68454e-05
smoothSolver:  Solving for k, Initial residual = 7.41922e-05, Final residual = 8.15658e-08, No Iterations 5
ExecutionTime = 2.71 s  ClockTime = 3 s

Courant Number mean: 0.273331 max: 0.961538
deltaT = 0.00192308
Time = 0.490385

diagonal:  Solving for rho, Initial residual = 0, Final residual = 0, No Iterations 0
smoothSolver:  Solving for Ux, Initial residual = 7.65916e-05, Final residual = 6.65375e-08, No Iterations 5
smoothSolver:  Solving for Uy, Initial residual = 0.00016319, Final residual = 8.72257e-08, No Iterations 6
smoothSolver:  Solving for O2, Initial residual = 1.35733e-06, Final residual = 3.55196e-08, No Iterations 3
max of O2 = 0.23301
min of O2 = 0
smoothSolver:  Solving for H2O, Initial residual = 1.35733e-06, Final residual = 3.55196e-08, No Iterations 3
max of H2O = 1
min of H2O = 0
max of N2 = 0.76699
min of N2 = 0
DILUPBiCG:  Solving for hs, Initial residual = 1.2907e-06, Final residual = 6.89032e-08, No Iterations 1
GAMG:  Solving for p_rgh, Initial residual = 0.00829945, Final residual = 4.51275e-05, No Iterations 4
diagonal:  Solving for rho, Initial residual = 0, Final residual = 0, No Iterations 0
time step continuity errors : sum local = 1.94021e-07, global = -7.37024e-09, cumulative = 7.6838e-05
GAMG:  Solving for p_rgh, Initial residual = 0.000918383, Final residual = 8.33778e-08, No Iterations 10
diagonal:  Solving for rho, Initial residual = 0, Final residual = 0, No Iterations 0
time step continuity errors : sum local = 4.25793e-10, global = -7.08019e-11, cumulative = 7.68379e-05
smoothSolver:  Solving for k, Initial residual = 6.162e-05, Final residual = 6.30967e-08, No Iterations 5
ExecutionTime = 2.72 s  ClockTime = 3 s

Courant Number mean: 0.273325 max: 0.961538
deltaT = 0.00192308
Time = 0.492308

diagonal:  Solving for rho, Initial residual = 0, Final residual = 0, No Iterations 0
smoothSolver:  Solving for Ux, Initial residual = 8.65364e-05, Final residual = 7.62455e-08, No Iterations 5
smoothSolver:  Solving for Uy, Initial residual = 0.000174725, Final residual = 3.04304e-08, No Iterations 7
smoothSolver:  Solving for O2, Initial residual = 1.10639e-06, Final residual = 8.98217e-08, No Iterations 2
max of O2 = 0.23301
min of O2 = 0
smoothSolver:  Solving for H2O, Initial residual = 1.10639e-06, Final residual = 8.98217e-08, No Iterations 2
max of H2O = 1
min of H2O = 0
max of N2 = 0.76699
min of N2 = 0
DILUPBiCG:  Solving for hs, Initial residual = 1.04352e-06, Final residual = 1.1306e-08, No Iterations 1
GAMG:  Solving for p_rgh, Initial residual = 0.00787966, Final residual = 4.38716e-05, No Iterations 4
diagonal:  Solving for rho, Initial residual = 0, Final residual = 0, No Iterations 0
time step continuity errors : sum local = 1.88444e-07, global = 1.33281e-08, cumulative = 7.68513e-05
GAMG:  Solving for p_rgh, Initial residual = 0.000960298, Final residual = 7.72636e-08, No Iterations 10
diagonal:  Solving for rho, Initial residual = 0, Final residual = 0, No Iterations 0
time step continuity errors : sum local = 3.87243e-10, global = 5.38732e-11, cumulative = 7.68513e-05
smoothSolver:  Solving for k, Initial residual = 5.98415e-05, Final residual = 5.6602e-08, No Iterations 5
ExecutionTime = 2.73 s  ClockTime = 3 s

Courant Number mean: 0.273327 max: 0.961538
deltaT = 0.00192308
Time = 0.494231

diagonal:  Solving for rho, Initial residual = 0, Final residual = 0, No Iterations 0
smoothSolver:  Solving for Ux, Initial residual = 9.34063e-05, Final residual = 6.93772e-08, No Iterations 5
smoothSolver:  Solving for Uy, Initial residual = 0.000183153, Final residual = 3.1509e-08, No Iterations 7
smoothSolver:  Solving for O2, Initial residual = 1.18192e-06, Final residual = 3.01694e-08, No Iterations 3
max of O2 = 0.23301
min of O2 = 0
smoothSolver:  Solving for H2O, Initial residual = 1.18192e-06, Final residual = 3.01694e-08, No Iterations 3
max of H2O = 1
min of H2O = 0
max of N2 = 0.76699
min of N2 = 0
DILUPBiCG:  Solving for hs, Initial residual = 1.11437e-06, Final residual = 1.64126e-08, No Iterations 1
GAMG:  Solving for p_rgh, Initial residual = 0.00945075, Final residual = 2.98643e-05, No Iterations 4
diagonal:  Solving for rho, Initial residual = 0, Final residual = 0, No Iterations 0
time step continuity errors : sum local = 1.28118e-07, global = 1.52182e-08, cumulative = 7.68665e-05
GAMG:  Solving for p_rgh, Initial residual = 0.000754729, Final residual = 7.97519e-08, No Iterations 9
diagonal:  Solving for rho, Initial residual = 0, Final residual = 0, No Iterations 0
time step continuity errors : sum local = 3.78858e-10, global = 5.44689e-12, cumulative = 7.68665e-05
smoothSolver:  Solving for k, Initial residual = 6.38491e-05, Final residual = 5.68395e-08, No Iterations 5
ExecutionTime = 2.74 s  ClockTime = 3 s

Courant Number mean: 0.273326 max: 0.961538
deltaT = 0.00192308
Time = 0.496154

diagonal:  Solving for rho, Initial residual = 0, Final residual = 0, No Iterations 0
smoothSolver:  Solving for Ux, Initial residual = 8.94316e-05, Final residual = 6.28511e-08, No Iterations 5
smoothSolver:  Solving for Uy, Initial residual = 0.000211909, Final residual = 4.04725e-08, No Iterations 7
smoothSolver:  Solving for O2, Initial residual = 1.12515e-06, Final residual = 9.49298e-08, No Iterations 2
max of O2 = 0.23301
min of O2 = 0
smoothSolver:  Solving for H2O, Initial residual = 1.12515e-06, Final residual = 9.49298e-08, No Iterations 2
max of H2O = 1
min of H2O = 0
max of N2 = 0.76699
min of N2 = 0
DILUPBiCG:  Solving for hs, Initial residual = 1.05635e-06, Final residual = 1.37982e-08, No Iterations 1
GAMG:  Solving for p_rgh, Initial residual = 0.011151, Final residual = 4.68502e-05, No Iterations 4
diagonal:  Solving for rho, Initial residual = 0, Final residual = 0, No Iterations 0
time step continuity errors : sum local = 2.01284e-07, global = -1.25824e-08, cumulative = 7.6854e-05
GAMG:  Solving for p_rgh, Initial residual = 0.00108537, Final residual = 8.24949e-08, No Iterations 9
diagonal:  Solving for rho, Initial residual = 0, Final residual = 0, No Iterations 0
time step continuity errors : sum local = 4.05232e-10, global = -1.44098e-11, cumulative = 7.68539e-05
smoothSolver:  Solving for k, Initial residual = 6.66868e-05, Final residual = 7.11741e-08, No Iterations 5
ExecutionTime = 2.75 s  ClockTime = 3 s

Courant Number mean: 0.273332 max: 0.961538
deltaT = 0.00192308
Time = 0.498077

diagonal:  Solving for rho, Initial residual = 0, Final residual = 0, No Iterations 0
smoothSolver:  Solving for Ux, Initial residual = 8.27619e-05, Final residual = 8.61233e-08, No Iterations 5
smoothSolver:  Solving for Uy, Initial residual = 0.000208857, Final residual = 4.16994e-08, No Iterations 7
smoothSolver:  Solving for O2, Initial residual = 1.20309e-06, Final residual = 3.13462e-08, No Iterations 3
max of O2 = 0.23301
min of O2 = 0
smoothSolver:  Solving for H2O, Initial residual = 1.20309e-06, Final residual = 3.13462e-08, No Iterations 3
max of H2O = 1
min of H2O = 0
max of N2 = 0.76699
min of N2 = 0
DILUPBiCG:  Solving for hs, Initial residual = 1.1355e-06, Final residual = 7.04594e-08, No Iterations 1
GAMG:  Solving for p_rgh, Initial residual = 0.0084324, Final residual = 4.89876e-05, No Iterations 4
diagonal:  Solving for rho, Initial residual = 0, Final residual = 0, No Iterations 0
time step continuity errors : sum local = 2.11094e-07, global = -1.70224e-08, cumulative = 7.68369e-05
GAMG:  Solving for p_rgh, Initial residual = 0.00108008, Final residual = 8.22938e-08, No Iterations 10
diagonal:  Solving for rho, Initial residual = 0, Final residual = 0, No Iterations 0
time step continuity errors : sum local = 4.10071e-10, global = -9.14947e-11, cumulative = 7.68368e-05
smoothSolver:  Solving for k, Initial residual = 6.06259e-05, Final residual = 6.30542e-08, No Iterations 5
ExecutionTime = 2.76 s  ClockTime = 3 s

Courant Number mean: 0.273329 max: 0.961538
deltaT = 0.00192308
Time = 0.5

diagonal:  Solving for rho, Initial residual = 0, Final residual = 0, No Iterations 0
smoothSolver:  Solving for Ux, Initial residual = 8.69579e-05, Final residual = 7.7099e-08, No Iterations 5
smoothSolver:  Solving for Uy, Initial residual = 0.00022944, Final residual = 4.38344e-08, No Iterations 7
smoothSolver:  Solving for O2, Initial residual = 9.39219e-07, Final residual = 7.33176e-08, No Iterations 2
max of O2 = 0.23301
min of O2 = 0
smoothSolver:  Solving for H2O, Initial residual = 9.39219e-07, Final residual = 7.33176e-08, No Iterations 2
max of H2O = 1
min of H2O = 0
max of N2 = 0.76699
min of N2 = 0
DILUPBiCG:  Solving for hs, Initial residual = 8.8057e-07, Final residual = 9.93744e-09, No Iterations 1
GAMG:  Solving for p_rgh, Initial residual = 0.00853767, Final residual = 4.38076e-05, No Iterations 4
diagonal:  Solving for rho, Initial residual = 0, Final residual = 0, No Iterations 0
time step continuity errors : sum local = 1.89541e-07, global = -6.10166e-09, cumulative = 7.68307e-05
GAMG:  Solving for p_rgh, Initial residual = 0.0011257, Final residual = 9.05417e-08, No Iterations 10
diagonal:  Solving for rho, Initial residual = 0, Final residual = 0, No Iterations 0
time step continuity errors : sum local = 3.9848e-10, global = 8.29126e-11, cumulative = 7.68308e-05
smoothSolver:  Solving for k, Initial residual = 6.62169e-05, Final residual = 6.7002e-08, No Iterations 5
ExecutionTime = 2.78 s  ClockTime = 3 s

End

