/*---------------------------------------------------------------------------*\
| =========                 |                                                 |
| \\      /  F ield         | OpenFOAM: The Open Source CFD Toolbox           |
|  \\    /   O peration     | Version:  1.7.x                                 |
|   \\  /    A nd           | Web:      www.OpenFOAM.com                      |
|    \\/     M anipulation  |                                                 |
\*---------------------------------------------------------------------------*/
Build  : 1.7.x-e90828cd94a4
Exec   : fireFoam
Date   : Mar 14 2011
Time   : 14:38:57
Host   : wangyUbuntu
PID    : 8015
Case   : /home/wangy/OpenFOAM/wangy-1.7.x/run/fireFoam/testBatteryFireFOAM/coFlowFlameSpray2D
nProcs : 1
SigFpe : Enabling floating point exception trapping (FOAM_SIGFPE).

// * * * * * * * * * * * * * * * * * * * * * * * * * * * * * * * * * * * * * //
Create time

Create mesh for time = 0


Reading g
Reading thermophysical properties

Selecting thermodynamics package hsPsiMixtureThermoNew<singleStepReactingMixture<gasThermoPhysics>>
Selecting chemistryReader foamChemistryReader
Fuel heat of combustion :5.00314e+07
Mole based specieStoichCoeffs: 5(-2 2 -1 1 7.52)
stoichiometric air-fuel ratio :17.1204
stoichiometric oxygen-fuel ratio :3.98918
Max products: 5(0 0.123944 0 0.151392 0.724664)
mass based specieStoichCoeffs: 5(-3.98918 2.2459 -1 2.74329 13.1312)
Reading field p_rgh

Reading field U

Reading/calculating face flux field phi

Creating turbulence model

Selecting turbulence model type LESModel
Selecting LES turbulence model oneEqEddy
--> FOAM Warning : 
    From function cubeRootVolDelta::calcDelta()
    in file cubeRootVolDelta/cubeRootVolDelta.C at line 52
    Case is 2D, LES is not strictly applicable

oneEqEddyCoeffs
{
    ce              1.048;
    Prt             1;
    ck              0.094;
}

Creating combustion model

Selecting combustion model eddyDissipationModel
stoichiometric mixture fraction is = 0.0551866
Creating field DpDt

Calculating field g.h

Selecting radiationModel none
Creating pyrolysis model

Selecting pyrolysisModel none

Constructing reacting cloud
Selecting DispersionModel none
Selecting DragModel SphereDrag
Selecting InjectionModel ConeInjection
    Constructing 2-D injection
Selecting pdfType RosinRammler
Selecting PatchInteractionModel StandardWallInteraction
Selecting PostProcessingModel none
Selecting U IntegrationScheme Euler
Selecting HeatTransferModel RanzMarshall
Selecting T IntegrationScheme Analytical
Selecting CompositionModel SinglePhaseMixture
Selecting PhaseChangeModel LiquidEvaporation
Courant Number mean: 0 max: 0

Starting time loop

Courant Number mean: 0 max: 0
deltaT = 0.0011976
cellSource HRR:
    total cells  = 1400
    total volume = 0.32



faceSource patchSides:
    total faces  = 80
    total area   = 0.16


faceSource patchOutlet:
    total faces  = 35
    total area   = 0.08


faceSource patchInlet:
    total faces  = 5
    total area   = 0.008


Reading/calculating field TMean

Reading/calculating field UMean

Reading/calculating field ftMean

Reading/calculating field dQMean

Reading/calculating field TPrime2Mean

Reading/calculating field ftPrime2Mean

fieldAverage: starting averaging at time 0

Time = 0.0011976

Cloud: reactingCloud1
    Total number of parcels added   = 0
    Total mass introduced           = 0
    Current number of parcels       = 0
    Current mass in system          = 0
    Mass transfer phase change      = 0

diagonal:  Solving for rho, Initial residual = 0, Final residual = 0, No Iterations 0
DILUPBiCG:  Solving for Ux, Initial residual = 1, Final residual = 1.34929e-10, No Iterations 1
DILUPBiCG:  Solving for Uy, Initial residual = 1, Final residual = 5.38616e-11, No Iterations 1
DILUPBiCG:  Solving for O2, Initial residual = 0.00291956, Final residual = 7.77798e-13, No Iterations 1
max of O2 = 0.23301
min of O2 = 0.23301
DILUPBiCG:  Solving for H2O, Initial residual = 0, Final residual = 0, No Iterations 0
max of H2O = 0
min of H2O = 0
DILUPBiCG:  Solving for CH4, Initial residual = 0.999998, Final residual = 2.72054e-10, No Iterations 1
max of CH4 = 1.19448e-09
min of CH4 = 7.12914e-277
DILUPBiCG:  Solving for CO2, Initial residual = 0, Final residual = 0, No Iterations 0
max of CO2 = 0
min of CO2 = 0
max of N2 = 0.76699
min of N2 = 0
DILUPBiCG:  Solving for hs, Initial residual = 0, Final residual = 0, No Iterations 0
GAMG:  Solving for p_rgh, Initial residual = 0.894675, Final residual = 0.00693987, No Iterations 4
diagonal:  Solving for rho, Initial residual = 0, Final residual = 0, No Iterations 0
time step continuity errors : sum local = 1.04105e-08, global = 4.432e-09, cumulative = 4.432e-09
GAMG:  Solving for p_rgh, Initial residual = 0.083963, Final residual = 4.25254e-07, No Iterations 9
diagonal:  Solving for rho, Initial residual = 0, Final residual = 0, No Iterations 0
time step continuity errors : sum local = 3.24688e-12, global = 1.33098e-12, cumulative = 4.43333e-09
DILUPBiCG:  Solving for k, Initial residual = 1, Final residual = 1.26054e-10, No Iterations 1
ExecutionTime = 0.06 s  ClockTime = 0 s

Courant Number mean: 1.90024e-06 max: 0.000457847
deltaT = 0.00143023
faceSource patchSides output:
    sum(sides) for phi = -2.25629e-06
    sum(sides) for HRR_fu = -9.76321e-89
    sum(sides) for phiH = -7.48676e-05
    sum(sides) for phiHs = 0
    sum(sides) for phiHc = -7.48676e-05

faceSource patchOutlet output:
    sum(outlet) for phi = -5.04649e-07
    sum(outlet) for HRR_fu = 2.29492e-205
    sum(outlet) for phiH = -1.67451e-05
    sum(outlet) for phiHs = 0
    sum(outlet) for phiHc = -1.67451e-05

faceSource patchInlet output:
    sum(inlet) for phi = -0.000200013
    sum(inlet) for HRR_fu = 1.22072e-05
    sum(inlet) for phiH = 0.00553806
    sum(inlet) for phiHs = 0
    sum(inlet) for phiHc = 0.00553806

Calculating averages

Time = 0.00262784

Cloud: reactingCloud1
    Total number of parcels added   = 0
    Total mass introduced           = 0
    Current number of parcels       = 0
    Current mass in system          = 0
    Mass transfer phase change      = 0

diagonal:  Solving for rho, Initial residual = 0, Final residual = 0, No Iterations 0
DILUPBiCG:  Solving for Ux, Initial residual = 0.373853, Final residual = 7.10871e-10, No Iterations 1
DILUPBiCG:  Solving for Uy, Initial residual = 0.264337, Final residual = 5.01091e-10, No Iterations 1
DILUPBiCG:  Solving for O2, Initial residual = 1, Final residual = 1.74941e-16, No Iterations 2
max of O2 = 0.23301
min of O2 = 0.0048499
DILUPBiCG:  Solving for H2O, Initial residual = 0.400092, Final residual = 6.19557e-09, No Iterations 1
max of H2O = 0
min of H2O = -1.01074e-20
DILUPBiCG:  Solving for CH4, Initial residual = 1, Final residual = 1.05849e-16, No Iterations 2
max of CH4 = 0.979186
min of CH4 = 0
DILUPBiCG:  Solving for CO2, Initial residual = 0.498754, Final residual = 7.72338e-09, No Iterations 1
max of CO2 = 0
min of CO2 = -1.50799e-20
max of N2 = 0.76699
min of N2 = 0
DILUPBiCG:  Solving for hs, Initial residual = 1, Final residual = 5.82698e-09, No Iterations 1
GAMG:  Solving for p_rgh, Initial residual = 0.329369, Final residual = 0.00101663, No Iterations 4
diagonal:  Solving for rho, Initial residual = 0, Final residual = 0, No Iterations 0
time step continuity errors : sum local = 6.01199e-09, global = 2.38001e-09, cumulative = 6.81334e-09
GAMG:  Solving for p_rgh, Initial residual = 0.0326104, Final residual = 4.16773e-07, No Iterations 9
diagonal:  Solving for rho, Initial residual = 0, Final residual = 0, No Iterations 0
time step continuity errors : sum local = 2.64222e-11, global = -2.63507e-11, cumulative = 6.78699e-09
DILUPBiCG:  Solving for k, Initial residual = 0.970883, Final residual = 3.2526e-10, No Iterations 1
ExecutionTime = 0.08 s  ClockTime = 0 s

Courant Number mean: 7.8518e-06 max: 0.00108784
deltaT = 0.00170148
faceSource patchSides output:
    sum(sides) for phi = 1.62624e-05
    sum(sides) for HRR_fu = -1.30342e-71
    sum(sides) for phiH = 0.000542141
    sum(sides) for phiHs = 2.26258e-06
    sum(sides) for phiHc = 0.000539615

faceSource patchOutlet output:
    sum(outlet) for phi = -6.00537e-07
    sum(outlet) for HRR_fu = -1.09298e-183
    sum(outlet) for phiH = -1.85133e-05
    sum(outlet) for phiHs = 1.41353e-06
    sum(outlet) for phiHc = -1.99268e-05

faceSource patchInlet output:
    sum(inlet) for phi = -0.0002
    sum(inlet) for HRR_fu = 10003
    sum(inlet) for phiH = 944.788
    sum(inlet) for phiHs = 1.44198e-05
    sum(inlet) for phiHc = 944.788

Calculating averages

Time = 0.00432932

Cloud: reactingCloud1
    Total number of parcels added   = 0
    Total mass introduced           = 0
    Current number of parcels       = 0
    Current mass in system          = 0
    Mass transfer phase change      = 0

diagonal:  Solving for rho, Initial residual = 0, Final residual = 0, No Iterations 0
DILUPBiCG:  Solving for Ux, Initial residual = 0.303165, Final residual = 2.45274e-09, No Iterations 1
DILUPBiCG:  Solving for Uy, Initial residual = 0.230527, Final residual = 1.6197e-09, No Iterations 1
DILUPBiCG:  Solving for O2, Initial residual = 0.199054, Final residual = 8.03048e-16, No Iterations 2
max of O2 = 0.23301
min of O2 = 0.00477382
DILUPBiCG:  Solving for H2O, Initial residual = 1, Final residual = 2.59053e-15, No Iterations 2
max of H2O = 3.68564e-07
min of H2O = 0
DILUPBiCG:  Solving for CH4, Initial residual = 0.197247, Final residual = 5.11036e-16, No Iterations 2
max of CH4 = 0.979512
min of CH4 = 0
DILUPBiCG:  Solving for CO2, Initial residual = 1, Final residual = 2.58987e-15, No Iterations 2
max of CO2 = 5.4982e-07
min of CO2 = 0
max of N2 = 0.76699
min of N2 = 0
DILUPBiCG:  Solving for hs, Initial residual = 0.486696, Final residual = 8.90391e-09, No Iterations 1
GAMG:  Solving for p_rgh, Initial residual = 0.213342, Final residual = 0.000761244, No Iterations 4
diagonal:  Solving for rho, Initial residual = 0, Final residual = 0, No Iterations 0
time step continuity errors : sum local = 1.37796e-08, global = 3.55756e-09, cumulative = 1.03446e-08
GAMG:  Solving for p_rgh, Initial residual = 0.000508766, Final residual = 6.87461e-07, No Iterations 5
diagonal:  Solving for rho, Initial residual = 0, Final residual = 0, No Iterations 0
time step continuity errors : sum local = 2.2821e-11, global = 1.18217e-11, cumulative = 1.03564e-08
DILUPBiCG:  Solving for k, Initial residual = 0.946473, Final residual = 6.66126e-10, No Iterations 1
ExecutionTime = 0.11 s  ClockTime = 0 s

Courant Number mean: 1.76895e-05 max: 0.0012942
deltaT = 0.00203824
faceSource patchSides output:
    sum(sides) for phi = 9.86426e-05
    sum(sides) for HRR_fu = -4.97354e-65
    sum(sides) for phiH = 0.00327739
    sum(sides) for phiHs = 2.53433e-06
    sum(sides) for phiHc = 0.00327313

faceSource patchOutlet output:
    sum(outlet) for phi = -7.11728e-07
    sum(outlet) for HRR_fu = -9.94553e-175
    sum(outlet) for phiH = -2.06935e-05
    sum(outlet) for phiHs = 2.92281e-06
    sum(outlet) for phiHc = -2.36164e-05

faceSource patchInlet output:
    sum(inlet) for phi = -0.000199996
    sum(inlet) for HRR_fu = 10006.1
    sum(inlet) for phiH = 944.837
    sum(inlet) for phiHs = 3.69494e-05
    sum(inlet) for phiHc = 944.837

Calculating averages

Time = 0.00636756

Cloud: reactingCloud1
    Total number of parcels added   = 0
    Total mass introduced           = 0
    Current number of parcels       = 0
    Current mass in system          = 0
    Mass transfer phase change      = 0

diagonal:  Solving for rho, Initial residual = 0, Final residual = 0, No Iterations 0
DILUPBiCG:  Solving for Ux, Initial residual = 0.235275, Final residual = 8.67719e-10, No Iterations 1
DILUPBiCG:  Solving for Uy, Initial residual = 0.199046, Final residual = 7.81271e-10, No Iterations 1
DILUPBiCG:  Solving for O2, Initial residual = 0.120538, Final residual = 5.88432e-16, No Iterations 2
max of O2 = 0.23301
min of O2 = 0.0047718
DILUPBiCG:  Solving for H2O, Initial residual = 0.443388, Final residual = 2.01328e-15, No Iterations 2
max of H2O = 1.78924e-06
min of H2O = 0
DILUPBiCG:  Solving for CH4, Initial residual = 0.118477, Final residual = 5.3771e-16, No Iterations 2
max of CH4 = 0.979521
min of CH4 = 0
DILUPBiCG:  Solving for CO2, Initial residual = 0.394764, Final residual = 1.7924e-15, No Iterations 2
max of CO2 = 2.28508e-06
min of CO2 = 0
max of N2 = 0.76699
min of N2 = 0
DILUPBiCG:  Solving for hs, Initial residual = 0.313457, Final residual = 3.72456e-16, No Iterations 2
GAMG:  Solving for p_rgh, Initial residual = 0.108902, Final residual = 0.000691147, No Iterations 4
diagonal:  Solving for rho, Initial residual = 0, Final residual = 0, No Iterations 0
time step continuity errors : sum local = 2.44837e-08, global = 9.06346e-09, cumulative = 1.94198e-08
GAMG:  Solving for p_rgh, Initial residual = 0.000585271, Final residual = 3.52137e-07, No Iterations 6
diagonal:  Solving for rho, Initial residual = 0, Final residual = 0, No Iterations 0
time step continuity errors : sum local = 1.55715e-11, global = 5.84579e-12, cumulative = 1.94257e-08
DILUPBiCG:  Solving for k, Initial residual = 0.926761, Final residual = 1.14748e-09, No Iterations 1
ExecutionTime = 0.13 s  ClockTime = 0 s

Courant Number mean: 3.18698e-05 max: 0.00155037
deltaT = 0.00242041
faceSource patchSides output:
    sum(sides) for phi = 0.000290263
    sum(sides) for HRR_fu = -3.60245e-60
    sum(sides) for phiH = 0.00964149
    sum(sides) for phiHs = 4.71324e-06
    sum(sides) for phiHc = 0.00963143

faceSource patchOutlet output:
    sum(outlet) for phi = -8.4657e-07
    sum(outlet) for HRR_fu = -6.76533e-167
    sum(outlet) for phiH = -2.23861e-05
    sum(outlet) for phiHs = 5.7045e-06
    sum(outlet) for phiHc = -2.80906e-05

faceSource patchInlet output:
    sum(inlet) for phi = -0.000199998
    sum(inlet) for HRR_fu = 10006.2
    sum(inlet) for phiH = 944.837
    sum(inlet) for phiHs = 0.00011667
    sum(inlet) for phiHc = 944.837

Calculating averages

Time = 0.00878796

Cloud: reactingCloud1
    Total number of parcels added   = 0
    Total mass introduced           = 0
    Current number of parcels       = 0
    Current mass in system          = 0
    Mass transfer phase change      = 0

diagonal:  Solving for rho, Initial residual = 0, Final residual = 0, No Iterations 0
DILUPBiCG:  Solving for Ux, Initial residual = 0.188467, Final residual = 3.71605e-10, No Iterations 1
DILUPBiCG:  Solving for Uy, Initial residual = 0.169424, Final residual = 4.45902e-10, No Iterations 1
DILUPBiCG:  Solving for O2, Initial residual = 0.0904943, Final residual = 9.05667e-16, No Iterations 2
max of O2 = 0.23301
min of O2 = 0.00476923
DILUPBiCG:  Solving for H2O, Initial residual = 0.243203, Final residual = 2.39249e-15, No Iterations 2
max of H2O = 4.57072e-06
min of H2O = 0
DILUPBiCG:  Solving for CH4, Initial residual = 0.088119, Final residual = 8.6539e-16, No Iterations 2
max of CH4 = 0.979531
min of CH4 = 0
DILUPBiCG:  Solving for CO2, Initial residual = 0.235098, Final residual = 2.31267e-15, No Iterations 2
max of CO2 = 5.68249e-06
min of CO2 = 0
max of N2 = 0.76699
min of N2 = 0
DILUPBiCG:  Solving for hs, Initial residual = 0.277035, Final residual = 1.35193e-15, No Iterations 2
GAMG:  Solving for p_rgh, Initial residual = 0.0669457, Final residual = 0.000225933, No Iterations 4
diagonal:  Solving for rho, Initial residual = 0, Final residual = 0, No Iterations 0
time step continuity errors : sum local = 1.22384e-08, global = -8.78226e-10, cumulative = 1.85475e-08
GAMG:  Solving for p_rgh, Initial residual = 0.000242023, Final residual = 3.48834e-07, No Iterations 5
diagonal:  Solving for rho, Initial residual = 0, Final residual = 0, No Iterations 0
time step continuity errors : sum local = 1.88011e-11, global = 6.0567e-12, cumulative = 1.85535e-08
DILUPBiCG:  Solving for k, Initial residual = 0.910825, Final residual = 2.06092e-09, No Iterations 1
ExecutionTime = 0.16 s  ClockTime = 0 s

Courant Number mean: 4.90627e-05 max: 0.00184109
deltaT = 0.00289715
faceSource patchSides output:
    sum(sides) for phi = 0.000535153
    sum(sides) for HRR_fu = -1.73513e-56
    sum(sides) for phiH = 0.0177829
    sum(sides) for phiHs = 1.88061e-05
    sum(sides) for phiHc = 0.0177573

faceSource patchOutlet output:
    sum(outlet) for phi = -9.80139e-07
    sum(outlet) for HRR_fu = -1.37327e-159
    sum(outlet) for phiH = -1.70451e-05
    sum(outlet) for phiHs = 1.54776e-05
    sum(outlet) for phiHc = -3.25227e-05

faceSource patchInlet output:
    sum(inlet) for phi = -0.000199999
    sum(inlet) for HRR_fu = 10006.2
    sum(inlet) for phiH = 944.837
    sum(inlet) for phiHs = 0.000371138
    sum(inlet) for phiHc = 944.837

Calculating averages

Time = 0.0116851

Cloud: reactingCloud1
    Total number of parcels added   = 0
    Total mass introduced           = 0
    Current number of parcels       = 0
    Current mass in system          = 0
    Mass transfer phase change      = 0

diagonal:  Solving for rho, Initial residual = 0, Final residual = 0, No Iterations 0
DILUPBiCG:  Solving for Ux, Initial residual = 0.153199, Final residual = 7.67069e-10, No Iterations 1
DILUPBiCG:  Solving for Uy, Initial residual = 0.114319, Final residual = 1.18656e-09, No Iterations 1
DILUPBiCG:  Solving for O2, Initial residual = 0.0757827, Final residual = 2.13867e-15, No Iterations 2
max of O2 = 0.23301
min of O2 = 0.00476609
DILUPBiCG:  Solving for H2O, Initial residual = 0.180829, Final residual = 5.21621e-15, No Iterations 2
max of H2O = 9.44954e-06
min of H2O = 0
DILUPBiCG:  Solving for CH4, Initial residual = 0.0730825, Final residual = 2.10288e-15, No Iterations 2
max of CH4 = 0.979544
min of CH4 = 0
DILUPBiCG:  Solving for CO2, Initial residual = 0.178228, Final residual = 5.14101e-15, No Iterations 2
max of CO2 = 1.16417e-05
min of CO2 = 0
max of N2 = 0.76699
min of N2 = 0
DILUPBiCG:  Solving for hs, Initial residual = 0.263388, Final residual = 4.77573e-15, No Iterations 2
GAMG:  Solving for p_rgh, Initial residual = 0.0667234, Final residual = 0.000233775, No Iterations 4
diagonal:  Solving for rho, Initial residual = 0, Final residual = 0, No Iterations 0
time step continuity errors : sum local = 1.56341e-08, global = -4.94574e-09, cumulative = 1.36078e-08
GAMG:  Solving for p_rgh, Initial residual = 0.000372564, Final residual = 7.55011e-07, No Iterations 5
diagonal:  Solving for rho, Initial residual = 0, Final residual = 0, No Iterations 0
time step continuity errors : sum local = 3.20087e-11, global = 8.63313e-12, cumulative = 1.36164e-08
DILUPBiCG:  Solving for k, Initial residual = 0.898184, Final residual = 3.29939e-09, No Iterations 1
ExecutionTime = 0.18 s  ClockTime = 0 s

Courant Number mean: 6.57631e-05 max: 0.00220374
deltaT = 0.00342391
faceSource patchSides output:
    sum(sides) for phi = 0.000704643
    sum(sides) for HRR_fu = -8.02902e-54
    sum(sides) for phiH = 0.0234215
    sum(sides) for phiHs = 3.91426e-05
    sum(sides) for phiHc = 0.0233812

faceSource patchOutlet output:
    sum(outlet) for phi = -1.09882e-06
    sum(outlet) for HRR_fu = -2.2313e-153
    sum(outlet) for phiH = 3.16514e-06
    sum(outlet) for phiHs = 3.96258e-05
    sum(outlet) for phiHc = -3.64607e-05

faceSource patchInlet output:
    sum(inlet) for phi = -0.000199999
    sum(inlet) for HRR_fu = 10006.2
    sum(inlet) for phiH = 944.827
    sum(inlet) for phiHs = 0.000824828
    sum(inlet) for phiHc = 944.826

Calculating averages

Time = 0.015109

Cloud: reactingCloud1
    Total number of parcels added   = 0
    Total mass introduced           = 0
    Current number of parcels       = 0
    Current mass in system          = 0
    Mass transfer phase change      = 0

diagonal:  Solving for rho, Initial residual = 0, Final residual = 0, No Iterations 0
DILUPBiCG:  Solving for Ux, Initial residual = 0.101749, Final residual = 1.21081e-09, No Iterations 1
DILUPBiCG:  Solving for Uy, Initial residual = 0.0520981, Final residual = 2.04709e-09, No Iterations 1
DILUPBiCG:  Solving for O2, Initial residual = 0.0663125, Final residual = 4.88738e-15, No Iterations 2
max of O2 = 0.23301
min of O2 = 0.00476235
DILUPBiCG:  Solving for H2O, Initial residual = 0.148269, Final residual = 1.10388e-14, No Iterations 2
max of H2O = 1.73999e-05
min of H2O = 0
DILUPBiCG:  Solving for CH4, Initial residual = 0.0632309, Final residual = 4.69079e-15, No Iterations 2
max of CH4 = 0.979559
min of CH4 = 0
DILUPBiCG:  Solving for CO2, Initial residual = 0.14719, Final residual = 1.0958e-14, No Iterations 2
max of CO2 = 2.13527e-05
min of CO2 = 0
max of N2 = 0.76699
min of N2 = 0
DILUPBiCG:  Solving for hs, Initial residual = 0.221624, Final residual = 1.1071e-14, No Iterations 2
GAMG:  Solving for p_rgh, Initial residual = 0.0717686, Final residual = 0.000373674, No Iterations 4
diagonal:  Solving for rho, Initial residual = 0, Final residual = 0, No Iterations 0
time step continuity errors : sum local = 2.17534e-08, global = -4.03438e-09, cumulative = 9.58203e-09
GAMG:  Solving for p_rgh, Initial residual = 0.00141058, Final residual = 4.06539e-07, No Iterations 7
diagonal:  Solving for rho, Initial residual = 0, Final residual = 0, No Iterations 0
time step continuity errors : sum local = 6.39834e-12, global = 1.2245e-12, cumulative = 9.58326e-09
DILUPBiCG:  Solving for k, Initial residual = 0.884763, Final residual = 5.77367e-09, No Iterations 1
ExecutionTime = 0.2 s  ClockTime = 0 s

Courant Number mean: 7.75796e-05 max: 0.00260444
deltaT = 0.00401937
faceSource patchSides output:
    sum(sides) for phi = 0.000722542
    sum(sides) for HRR_fu = -3.04334e-52
    sum(sides) for phiH = 0.0240061
    sum(sides) for phiHs = 3.71804e-05
    sum(sides) for phiHc = 0.0239752

faceSource patchOutlet output:
    sum(outlet) for phi = -1.21409e-06
    sum(outlet) for HRR_fu = -1.76554e-149
    sum(outlet) for phiH = 2.25581e-05
    sum(outlet) for phiHs = 6.28438e-05
    sum(outlet) for phiHc = -4.02857e-05

faceSource patchInlet output:
    sum(inlet) for phi = -0.000199999
    sum(inlet) for HRR_fu = 10006.2
    sum(inlet) for phiH = 944.818
    sum(inlet) for phiHs = 0.00156452
    sum(inlet) for phiHc = 944.817

Calculating averages

Time = 0.0191284

Cloud: reactingCloud1
    Total number of parcels added   = 0
    Total mass introduced           = 0
    Current number of parcels       = 0
    Current mass in system          = 0
    Mass transfer phase change      = 0

diagonal:  Solving for rho, Initial residual = 0, Final residual = 0, No Iterations 0
DILUPBiCG:  Solving for Ux, Initial residual = 0.0442382, Final residual = 2.188e-09, No Iterations 1
DILUPBiCG:  Solving for Uy, Initial residual = 0.0752217, Final residual = 3.3719e-09, No Iterations 1
DILUPBiCG:  Solving for O2, Initial residual = 0.0599483, Final residual = 1.11208e-14, No Iterations 2
max of O2 = 0.23301
min of O2 = 0.00475783
DILUPBiCG:  Solving for H2O, Initial residual = 0.128126, Final residual = 2.41717e-14, No Iterations 2
max of H2O = 2.97511e-05
min of H2O = 0
DILUPBiCG:  Solving for CH4, Initial residual = 0.0564347, Final residual = 1.0595e-14, No Iterations 2
max of CH4 = 0.979576
min of CH4 = 0
DILUPBiCG:  Solving for CO2, Initial residual = 0.127609, Final residual = 2.40721e-14, No Iterations 2
max of CO2 = 3.64391e-05
min of CO2 = 0
max of N2 = 0.76699
min of N2 = 0
DILUPBiCG:  Solving for hs, Initial residual = 0.169822, Final residual = 2.40032e-14, No Iterations 2
GAMG:  Solving for p_rgh, Initial residual = 0.154123, Final residual = 0.00118556, No Iterations 4
diagonal:  Solving for rho, Initial residual = 0, Final residual = 0, No Iterations 0
time step continuity errors : sum local = 2.43183e-08, global = -7.648e-09, cumulative = 1.93526e-09
GAMG:  Solving for p_rgh, Initial residual = 0.000897927, Final residual = 4.17171e-07, No Iterations 7
diagonal:  Solving for rho, Initial residual = 0, Final residual = 0, No Iterations 0
time step continuity errors : sum local = 1.218e-11, global = 2.74922e-12, cumulative = 1.93801e-09
DILUPBiCG:  Solving for k, Initial residual = 0.871472, Final residual = 1.88243e-15, No Iterations 2
ExecutionTime = 0.22 s  ClockTime = 0 s

Courant Number mean: 8.8647e-05 max: 0.00305741
deltaT = 0.00475978
faceSource patchSides output:
    sum(sides) for phi = 0.000633371
    sum(sides) for HRR_fu = -9.90964e-51
    sum(sides) for phiH = 0.0210254
    sum(sides) for phiHs = 1.6885e-05
    sum(sides) for phiHc = 0.0210163

faceSource patchOutlet output:
    sum(outlet) for phi = -1.49457e-06
    sum(outlet) for HRR_fu = -1.61144e-147
    sum(outlet) for phiH = -3.00037e-06
    sum(outlet) for phiHs = 4.65921e-05
    sum(outlet) for phiHc = -4.95925e-05

faceSource patchInlet output:
    sum(inlet) for phi = -0.0002
    sum(inlet) for HRR_fu = 10006.3
    sum(inlet) for phiH = 944.811
    sum(inlet) for phiHs = 0.00271629
    sum(inlet) for phiHc = 944.808

Calculating averages

Time = 0.0238882

Cloud: reactingCloud1
    Total number of parcels added   = 0
    Total mass introduced           = 0
    Current number of parcels       = 0
    Current mass in system          = 0
    Mass transfer phase change      = 0

diagonal:  Solving for rho, Initial residual = 0, Final residual = 0, No Iterations 0
DILUPBiCG:  Solving for Ux, Initial residual = 0.0583009, Final residual = 4.9077e-09, No Iterations 1
DILUPBiCG:  Solving for Uy, Initial residual = 0.0576602, Final residual = 5.90564e-09, No Iterations 1
DILUPBiCG:  Solving for O2, Initial residual = 0.0562197, Final residual = 2.73862e-14, No Iterations 2
max of O2 = 0.23301
min of O2 = 0.00475232
DILUPBiCG:  Solving for H2O, Initial residual = 0.115767, Final residual = 5.85042e-14, No Iterations 2
max of H2O = 4.85506e-05
min of H2O = 0
DILUPBiCG:  Solving for CH4, Initial residual = 0.0521776, Final residual = 2.62009e-14, No Iterations 2
max of CH4 = 0.979597
min of CH4 = 0
DILUPBiCG:  Solving for CO2, Initial residual = 0.115492, Final residual = 5.83549e-14, No Iterations 2
max of CO2 = 5.9402e-05
min of CO2 = 0
max of N2 = 0.76699
min of N2 = 0
DILUPBiCG:  Solving for hs, Initial residual = 0.132134, Final residual = 5.9076e-14, No Iterations 2
GAMG:  Solving for p_rgh, Initial residual = 0.0831749, Final residual = 0.000442715, No Iterations 4
diagonal:  Solving for rho, Initial residual = 0, Final residual = 0, No Iterations 0
time step continuity errors : sum local = 1.65676e-08, global = 5.37608e-09, cumulative = 7.31409e-09
GAMG:  Solving for p_rgh, Initial residual = 0.00067908, Final residual = 3.91806e-07, No Iterations 7
diagonal:  Solving for rho, Initial residual = 0, Final residual = 0, No Iterations 0
time step continuity errors : sum local = 1.06328e-11, global = -3.65127e-12, cumulative = 7.31044e-09
DILUPBiCG:  Solving for k, Initial residual = 0.857933, Final residual = 5.096e-15, No Iterations 2
ExecutionTime = 0.24 s  ClockTime = 0 s

Courant Number mean: 0.000110055 max: 0.00362062
deltaT = 0.00568103
faceSource patchSides output:
    sum(sides) for phi = 0.000567867
    sum(sides) for HRR_fu = -1.98581e-49
    sum(sides) for phiH = 0.0188394
    sum(sides) for phiHs = 6.61674e-07
    sum(sides) for phiHc = 0.0188428

faceSource patchOutlet output:
    sum(outlet) for phi = -2.02975e-06
    sum(outlet) for HRR_fu = -1.67985e-145
    sum(outlet) for phiH = -7.21555e-05
    sum(outlet) for phiHs = -4.80482e-06
    sum(outlet) for phiHc = -6.73507e-05

faceSource patchInlet output:
    sum(inlet) for phi = -0.0002
    sum(inlet) for HRR_fu = 10006.3
    sum(inlet) for phiH = 944.8
    sum(inlet) for phiHs = 0.00447264
    sum(inlet) for phiHc = 944.796

Calculating averages

Time = 0.0295692

Cloud: reactingCloud1
    Total number of parcels added   = 0
    Total mass introduced           = 0
    Current number of parcels       = 0
    Current mass in system          = 0
    Mass transfer phase change      = 0

diagonal:  Solving for rho, Initial residual = 0, Final residual = 0, No Iterations 0
DILUPBiCG:  Solving for Ux, Initial residual = 0.0688589, Final residual = 1.08307e-08, No Iterations 1
DILUPBiCG:  Solving for Uy, Initial residual = 0.0713031, Final residual = 1.10878e-08, No Iterations 1
DILUPBiCG:  Solving for O2, Initial residual = 0.0541379, Final residual = 7.34128e-14, No Iterations 2
max of O2 = 0.23301
min of O2 = 0.00474553
DILUPBiCG:  Solving for H2O, Initial residual = 0.10785, Final residual = 1.55246e-13, No Iterations 2
max of H2O = 7.68478e-05
min of H2O = 0
DILUPBiCG:  Solving for CH4, Initial residual = 0.0494571, Final residual = 7.06341e-14, No Iterations 2
max of CH4 = 0.979621
min of CH4 = 0
DILUPBiCG:  Solving for CO2, Initial residual = 0.107697, Final residual = 1.54958e-13, No Iterations 2
max of CO2 = 9.39657e-05
min of CO2 = 0
max of N2 = 0.76699
min of N2 = 0
DILUPBiCG:  Solving for hs, Initial residual = 0.115505, Final residual = 1.58926e-13, No Iterations 2
GAMG:  Solving for p_rgh, Initial residual = 0.105994, Final residual = 0.000342153, No Iterations 4
diagonal:  Solving for rho, Initial residual = 0, Final residual = 0, No Iterations 0
time step continuity errors : sum local = 1.14588e-08, global = 4.6785e-09, cumulative = 1.19889e-08
GAMG:  Solving for p_rgh, Initial residual = 0.000286665, Final residual = 7.96693e-07, No Iterations 5
diagonal:  Solving for rho, Initial residual = 0, Final residual = 0, No Iterations 0
time step continuity errors : sum local = 3.18803e-11, global = -6.43245e-12, cumulative = 1.19825e-08
DILUPBiCG:  Solving for k, Initial residual = 0.845175, Final residual = 1.66554e-14, No Iterations 2
ExecutionTime = 0.27 s  ClockTime = 0 s

Courant Number mean: 0.000149331 max: 0.00432139
deltaT = 0.00655503
faceSource patchSides output:
    sum(sides) for phi = 0.000631952
    sum(sides) for HRR_fu = -5.31306e-48
    sum(sides) for phiH = 0.0209668
    sum(sides) for phiHs = -3.68492e-06
    sum(sides) for phiHc = 0.0209692

faceSource patchOutlet output:
    sum(outlet) for phi = -2.56459e-06
    sum(outlet) for HRR_fu = -4.25551e-141
    sum(outlet) for phiH = -0.000113435
    sum(outlet) for phiHs = -2.83373e-05
    sum(outlet) for phiHc = -8.50975e-05

faceSource patchInlet output:
    sum(inlet) for phi = -0.0002
    sum(inlet) for HRR_fu = 10006.3
    sum(inlet) for phiH = 944.785
    sum(inlet) for phiHs = 0.00711861
    sum(inlet) for phiHc = 944.778

Calculating averages

Time = 0.0361242

Cloud: reactingCloud1
    Total number of parcels added   = 0
    Total mass introduced           = 0
    Current number of parcels       = 0
    Current mass in system          = 0
    Mass transfer phase change      = 0

diagonal:  Solving for rho, Initial residual = 0, Final residual = 0, No Iterations 0
DILUPBiCG:  Solving for Ux, Initial residual = 0.0624151, Final residual = 1.5816e-08, No Iterations 1
DILUPBiCG:  Solving for Uy, Initial residual = 0.07833, Final residual = 1.89664e-08, No Iterations 1
DILUPBiCG:  Solving for O2, Initial residual = 0.0511916, Final residual = 1.78326e-13, No Iterations 2
max of O2 = 0.23301
min of O2 = 0.00473741
DILUPBiCG:  Solving for H2O, Initial residual = 0.0989663, Final residual = 3.65063e-13, No Iterations 2
max of H2O = 0.000117513
min of H2O = 0
DILUPBiCG:  Solving for CH4, Initial residual = 0.0459446, Final residual = 1.68043e-13, No Iterations 2
max of CH4 = 0.979649
min of CH4 = 0
DILUPBiCG:  Solving for CO2, Initial residual = 0.0988851, Final residual = 3.64366e-13, No Iterations 2
max of CO2 = 0.000143636
min of CO2 = 0
max of N2 = 0.76699
min of N2 = 0
DILUPBiCG:  Solving for hs, Initial residual = 0.105648, Final residual = 3.7372e-13, No Iterations 2
GAMG:  Solving for p_rgh, Initial residual = 0.0386738, Final residual = 0.000174137, No Iterations 5
diagonal:  Solving for rho, Initial residual = 0, Final residual = 0, No Iterations 0
time step continuity errors : sum local = 9.21272e-09, global = -2.65389e-09, cumulative = 9.32861e-09
GAMG:  Solving for p_rgh, Initial residual = 0.000106116, Final residual = 6.65392e-07, No Iterations 5
diagonal:  Solving for rho, Initial residual = 0, Final residual = 0, No Iterations 0
time step continuity errors : sum local = 5.92577e-11, global = 1.75011e-11, cumulative = 9.34611e-09
DILUPBiCG:  Solving for k, Initial residual = 0.827304, Final residual = 4.63338e-14, No Iterations 2
ExecutionTime = 0.29 s  ClockTime = 0 s

Courant Number mean: 0.000198624 max: 0.00498623
deltaT = 0.00780361
faceSource patchSides output:
    sum(sides) for phi = 0.000781191
    sum(sides) for HRR_fu = -3.9055e-46
    sum(sides) for phiH = 0.0259264
    sum(sides) for phiHs = 1.50595e-06
    sum(sides) for phiHc = 0.0259212

faceSource patchOutlet output:
    sum(outlet) for phi = -2.78346e-06
    sum(outlet) for HRR_fu = -1.30039e-136
    sum(outlet) for phiH = -9.54992e-05
    sum(outlet) for phiHs = -3.13919e-06
    sum(outlet) for phiHc = -9.236e-05

faceSource patchInlet output:
    sum(inlet) for phi = -0.0002
    sum(inlet) for HRR_fu = 10006.3
    sum(inlet) for phiH = 944.767
    sum(inlet) for phiHs = 0.0109217
    sum(inlet) for phiHc = 944.756

Calculating averages

Time = 0.0439278

Cloud: reactingCloud1
    Total number of parcels added   = 0
    Total mass introduced           = 0
    Current number of parcels       = 0
    Current mass in system          = 0
    Mass transfer phase change      = 0

diagonal:  Solving for rho, Initial residual = 0, Final residual = 0, No Iterations 0
DILUPBiCG:  Solving for Ux, Initial residual = 0.0883802, Final residual = 3.00526e-08, No Iterations 1
DILUPBiCG:  Solving for Uy, Initial residual = 0.0601965, Final residual = 3.3348e-08, No Iterations 1
DILUPBiCG:  Solving for O2, Initial residual = 0.0507028, Final residual = 5.34285e-13, No Iterations 2
max of O2 = 0.23301
min of O2 = 0.00472735
DILUPBiCG:  Solving for H2O, Initial residual = 0.0949185, Final residual = 1.03502e-12, No Iterations 2
max of H2O = 0.000176812
min of H2O = 0
DILUPBiCG:  Solving for CH4, Initial residual = 0.0446733, Final residual = 4.8428e-13, No Iterations 2
max of CH4 = 0.979683
min of CH4 = 0
DILUPBiCG:  Solving for CO2, Initial residual = 0.094886, Final residual = 1.03186e-12, No Iterations 2
max of CO2 = 0.000216068
min of CO2 = 0
max of N2 = 0.76699
min of N2 = 0
DILUPBiCG:  Solving for hs, Initial residual = 0.0970887, Final residual = 1.05601e-12, No Iterations 2
GAMG:  Solving for p_rgh, Initial residual = 0.0130119, Final residual = 5.69319e-05, No Iterations 5
diagonal:  Solving for rho, Initial residual = 0, Final residual = 0, No Iterations 0
time step continuity errors : sum local = 7.05463e-09, global = 1.61081e-09, cumulative = 1.09569e-08
GAMG:  Solving for p_rgh, Initial residual = 8.09444e-05, Final residual = 5.78363e-07, No Iterations 5
diagonal:  Solving for rho, Initial residual = 0, Final residual = 0, No Iterations 0
time step continuity errors : sum local = 5.45666e-11, global = -1.40842e-11, cumulative = 1.09428e-08
DILUPBiCG:  Solving for k, Initial residual = 0.813508, Final residual = 1.39184e-13, No Iterations 2
ExecutionTime = 0.31 s  ClockTime = 0 s

Courant Number mean: 0.000266828 max: 0.00593601
deltaT = 0.00918072
faceSource patchSides output:
    sum(sides) for phi = 0.000910376
    sum(sides) for HRR_fu = -3.61792e-44
    sum(sides) for phiH = 0.0302198
    sum(sides) for phiHs = 1.02804e-05
    sum(sides) for phiHc = 0.0302078

faceSource patchOutlet output:
    sum(outlet) for phi = -3.11845e-06
    sum(outlet) for HRR_fu = -2.83402e-132
    sum(outlet) for phiH = -8.31168e-05
    sum(outlet) for phiHs = 2.03588e-05
    sum(outlet) for phiHc = -0.000103476

faceSource patchInlet output:
    sum(inlet) for phi = -0.0002
    sum(inlet) for HRR_fu = 10006.3
    sum(inlet) for phiH = 944.747
    sum(inlet) for phiHs = 0.0164691
    sum(inlet) for phiHc = 944.73

Calculating averages

Time = 0.0531086

Cloud: reactingCloud1
    Total number of parcels added   = 0
    Total mass introduced           = 0
    Current number of parcels       = 0
    Current mass in system          = 0
    Mass transfer phase change      = 0

diagonal:  Solving for rho, Initial residual = 0, Final residual = 0, No Iterations 0
DILUPBiCG:  Solving for Ux, Initial residual = 0.0714109, Final residual = 5.18145e-08, No Iterations 1
DILUPBiCG:  Solving for Uy, Initial residual = 0.0549345, Final residual = 5.64066e-08, No Iterations 1
DILUPBiCG:  Solving for O2, Initial residual = 0.0500821, Final residual = 1.61506e-12, No Iterations 2
max of O2 = 0.23301
min of O2 = 0.00471493
DILUPBiCG:  Solving for H2O, Initial residual = 0.090855, Final residual = 2.76893e-12, No Iterations 2
max of H2O = 0.000261659
min of H2O = 0
DILUPBiCG:  Solving for CH4, Initial residual = 0.043249, Final residual = 1.32716e-12, No Iterations 2
max of CH4 = 0.979722
min of CH4 = 0
DILUPBiCG:  Solving for CO2, Initial residual = 0.090871, Final residual = 2.75066e-12, No Iterations 2
max of CO2 = 0.000319705
min of CO2 = 0
max of N2 = 0.76699
min of N2 = 0
DILUPBiCG:  Solving for hs, Initial residual = 0.0914389, Final residual = 2.84208e-12, No Iterations 2
GAMG:  Solving for p_rgh, Initial residual = 0.0172502, Final residual = 0.000127579, No Iterations 4
diagonal:  Solving for rho, Initial residual = 0, Final residual = 0, No Iterations 0
time step continuity errors : sum local = 1.65059e-08, global = -8.03322e-09, cumulative = 2.90961e-09
GAMG:  Solving for p_rgh, Initial residual = 0.00020025, Final residual = 3.99269e-07, No Iterations 6
diagonal:  Solving for rho, Initial residual = 0, Final residual = 0, No Iterations 0
time step continuity errors : sum local = 3.53467e-11, global = -1.12896e-11, cumulative = 2.89833e-09
DILUPBiCG:  Solving for k, Initial residual = 0.794504, Final residual = 9.94937e-13, No Iterations 2
ExecutionTime = 0.33 s  ClockTime = 0 s

Courant Number mean: 0.000350274 max: 0.00698358
deltaT = 0.0104922
faceSource patchSides output:
    sum(sides) for phi = 0.00100431
    sum(sides) for HRR_fu = -9.5984e-43
    sum(sides) for phiH = 0.0333383
    sum(sides) for phiHs = 1.44862e-05
    sum(sides) for phiHc = 0.0333247

faceSource patchOutlet output:
    sum(outlet) for phi = -3.71265e-06
    sum(outlet) for HRR_fu = -4.19793e-128
    sum(outlet) for phiH = -0.000107361
    sum(outlet) for phiHs = 1.58308e-05
    sum(outlet) for phiHc = -0.000123192

faceSource patchInlet output:
    sum(inlet) for phi = -0.0002
    sum(inlet) for HRR_fu = 10006.3
    sum(inlet) for phiH = 944.726
    sum(inlet) for phiHs = 0.0244098
    sum(inlet) for phiHc = 944.702

Calculating averages

Time = 0.0636008

Cloud: reactingCloud1
    Total number of parcels added   = 0
    Total mass introduced           = 0
    Current number of parcels       = 0
    Current mass in system          = 0
    Mass transfer phase change      = 0

diagonal:  Solving for rho, Initial residual = 0, Final residual = 0, No Iterations 0
DILUPBiCG:  Solving for Ux, Initial residual = 0.0535846, Final residual = 8.1961e-08, No Iterations 1
DILUPBiCG:  Solving for Uy, Initial residual = 0.0593398, Final residual = 9.59094e-08, No Iterations 1
DILUPBiCG:  Solving for O2, Initial residual = 0.0486125, Final residual = 4.59933e-12, No Iterations 2
max of O2 = 0.23301
min of O2 = 0.00469994
DILUPBiCG:  Solving for H2O, Initial residual = 0.0854236, Final residual = 6.5977e-12, No Iterations 2
max of H2O = 0.000378673
min of H2O = 0
DILUPBiCG:  Solving for CH4, Initial residual = 0.041082, Final residual = 3.21299e-12, No Iterations 2
max of CH4 = 0.979767
min of CH4 = 0
DILUPBiCG:  Solving for CO2, Initial residual = 0.0854998, Final residual = 6.63186e-12, No Iterations 2
max of CO2 = 0.000462633
min of CO2 = 0
max of N2 = 0.76699
min of N2 = 0
DILUPBiCG:  Solving for hs, Initial residual = 0.0856122, Final residual = 6.71096e-12, No Iterations 2
GAMG:  Solving for p_rgh, Initial residual = 0.00883851, Final residual = 7.78391e-05, No Iterations 3
diagonal:  Solving for rho, Initial residual = 0, Final residual = 0, No Iterations 0
time step continuity errors : sum local = 8.98904e-09, global = 2.32444e-09, cumulative = 5.22277e-09
GAMG:  Solving for p_rgh, Initial residual = 8.46291e-05, Final residual = 5.57837e-07, No Iterations 5
diagonal:  Solving for rho, Initial residual = 0, Final residual = 0, No Iterations 0
time step continuity errors : sum local = 6.70886e-11, global = -1.22977e-11, cumulative = 5.21047e-09
DILUPBiCG:  Solving for k, Initial residual = 0.767768, Final residual = 1.56414e-12, No Iterations 2
ExecutionTime = 0.35 s  ClockTime = 1 s

Courant Number mean: 0.00044911 max: 0.00873069
deltaT = 0.0123999
faceSource patchSides output:
    sum(sides) for phi = 0.00111709
    sum(sides) for HRR_fu = -5.72861e-41
    sum(sides) for phiH = 0.0370792
    sum(sides) for phiHs = 1.31193e-05
    sum(sides) for phiHc = 0.037067

faceSource patchOutlet output:
    sum(outlet) for phi = -4.33973e-06
    sum(outlet) for HRR_fu = -1.2955e-124
    sum(outlet) for phiH = -0.000136864
    sum(outlet) for phiHs = 7.13529e-06
    sum(outlet) for phiHc = -0.000144

faceSource patchInlet output:
    sum(inlet) for phi = -0.0002
    sum(inlet) for HRR_fu = 10006.3
    sum(inlet) for phiH = 944.705
    sum(inlet) for phiHs = 0.0353659
    sum(inlet) for phiHc = 944.669

Calculating averages

Time = 0.0760007

Cloud: reactingCloud1
    Total number of parcels added   = 0
    Total mass introduced           = 0
    Current number of parcels       = 0
    Current mass in system          = 0
    Mass transfer phase change      = 0

diagonal:  Solving for rho, Initial residual = 0, Final residual = 0, No Iterations 0
DILUPBiCG:  Solving for Ux, Initial residual = 0.0583278, Final residual = 4.80793e-12, No Iterations 2
DILUPBiCG:  Solving for Uy, Initial residual = 0.0637014, Final residual = 5.00825e-12, No Iterations 2
DILUPBiCG:  Solving for O2, Initial residual = 0.0493759, Final residual = 1.7371e-11, No Iterations 2
max of O2 = 0.23301
min of O2 = 0.00468119
DILUPBiCG:  Solving for H2O, Initial residual = 0.0838062, Final residual = 2.16582e-11, No Iterations 2
max of H2O = 0.00054351
min of H2O = 0
DILUPBiCG:  Solving for CH4, Initial residual = 0.0408126, Final residual = 9.33479e-12, No Iterations 2
max of CH4 = 0.97982
min of CH4 = 0
DILUPBiCG:  Solving for CO2, Initial residual = 0.0839934, Final residual = 2.25402e-11, No Iterations 2
max of CO2 = 0.000663975
min of CO2 = 0
max of N2 = 0.76699
min of N2 = 0
DILUPBiCG:  Solving for hs, Initial residual = 0.0833297, Final residual = 1.95759e-11, No Iterations 2
GAMG:  Solving for p_rgh, Initial residual = 0.0156185, Final residual = 0.000137288, No Iterations 4
diagonal:  Solving for rho, Initial residual = 0, Final residual = 0, No Iterations 0
time step continuity errors : sum local = 2.28321e-08, global = -4.67995e-10, cumulative = 4.74248e-09
GAMG:  Solving for p_rgh, Initial residual = 0.000178575, Final residual = 8.62483e-07, No Iterations 5
diagonal:  Solving for rho, Initial residual = 0, Final residual = 0, No Iterations 0
time step continuity errors : sum local = 1.49259e-10, global = 3.70698e-11, cumulative = 4.77955e-09
DILUPBiCG:  Solving for k, Initial residual = 0.746057, Final residual = 5.41948e-12, No Iterations 2
ExecutionTime = 0.38 s  ClockTime = 1 s

Courant Number mean: 0.000597253 max: 0.0114197
deltaT = 0.0137777
faceSource patchSides output:
    sum(sides) for phi = 0.0012609
    sum(sides) for HRR_fu = -7.42092e-39
    sum(sides) for phiH = 0.0418512
    sum(sides) for phiHs = 1.21404e-05
    sum(sides) for phiHc = 0.041839

faceSource patchOutlet output:
    sum(outlet) for phi = -5.12671e-06
    sum(outlet) for HRR_fu = -1.52342e-120
    sum(outlet) for phiH = -0.000162864
    sum(outlet) for phiHs = 7.24915e-06
    sum(outlet) for phiHc = -0.000170113

faceSource patchInlet output:
    sum(inlet) for phi = -0.0002
    sum(inlet) for HRR_fu = 10006.3
    sum(inlet) for phiH = 944.681
    sum(inlet) for phiHs = 0.0508102
    sum(inlet) for phiHc = 944.63

Calculating averages

Time = 0.0897784

Cloud: reactingCloud1
    Total number of parcels added   = 0
    Total mass introduced           = 0
    Current number of parcels       = 0
    Current mass in system          = 0
    Mass transfer phase change      = 0

diagonal:  Solving for rho, Initial residual = 0, Final residual = 0, No Iterations 0
DILUPBiCG:  Solving for Ux, Initial residual = 0.0591179, Final residual = 1.01571e-11, No Iterations 2
DILUPBiCG:  Solving for Uy, Initial residual = 0.0588258, Final residual = 1.13744e-11, No Iterations 2
DILUPBiCG:  Solving for O2, Initial residual = 0.0474714, Final residual = 8.33804e-11, No Iterations 2
max of O2 = 0.23301
min of O2 = 0.00465895
DILUPBiCG:  Solving for H2O, Initial residual = 0.078444, Final residual = 6.26128e-11, No Iterations 2
max of H2O = 0.000761182
min of H2O = 0
DILUPBiCG:  Solving for CH4, Initial residual = 0.0384177, Final residual = 2.00063e-11, No Iterations 2
max of CH4 = 0.979879
min of CH4 = 0
DILUPBiCG:  Solving for CO2, Initial residual = 0.0786792, Final residual = 6.65365e-11, No Iterations 2
max of CO2 = 0.000929853
min of CO2 = 0
max of N2 = 0.76699
min of N2 = 0
DILUPBiCG:  Solving for hs, Initial residual = 0.0774304, Final residual = 4.92631e-11, No Iterations 2
GAMG:  Solving for p_rgh, Initial residual = 0.0108684, Final residual = 6.73042e-05, No Iterations 4
diagonal:  Solving for rho, Initial residual = 0, Final residual = 0, No Iterations 0
time step continuity errors : sum local = 1.4375e-08, global = 4.70771e-10, cumulative = 5.25032e-09
GAMG:  Solving for p_rgh, Initial residual = 0.000104396, Final residual = 6.20646e-07, No Iterations 5
diagonal:  Solving for rho, Initial residual = 0, Final residual = 0, No Iterations 0
time step continuity errors : sum local = 1.34907e-10, global = 1.81784e-11, cumulative = 5.26849e-09
DILUPBiCG:  Solving for k, Initial residual = 0.709159, Final residual = 1.43084e-11, No Iterations 2
ExecutionTime = 0.4 s  ClockTime = 1 s

Courant Number mean: 0.000747986 max: 0.0139984
deltaT = 0.0157459
faceSource patchSides output:
    sum(sides) for phi = 0.00142329
    sum(sides) for HRR_fu = -4.09762e-37
    sum(sides) for phiH = 0.0472413
    sum(sides) for phiHs = 1.40538e-05
    sum(sides) for phiHc = 0.0472271

faceSource patchOutlet output:
    sum(outlet) for phi = -5.67209e-06
    sum(outlet) for HRR_fu = -4.70806e-117
    sum(outlet) for phiH = -0.000179339
    sum(outlet) for phiHs = 8.87072e-06
    sum(outlet) for phiHc = -0.000188209

faceSource patchInlet output:
    sum(inlet) for phi = -0.0002
    sum(inlet) for HRR_fu = 10006.3
    sum(inlet) for phiH = 944.657
    sum(inlet) for phiHs = 0.071212
    sum(inlet) for phiHc = 944.586

Calculating averages

Time = 0.105524

Cloud: reactingCloud1
    Total number of parcels added   = 0
    Total mass introduced           = 0
    Current number of parcels       = 0
    Current mass in system          = 0
    Mass transfer phase change      = 0

diagonal:  Solving for rho, Initial residual = 0, Final residual = 0, No Iterations 0
DILUPBiCG:  Solving for Ux, Initial residual = 0.061189, Final residual = 2.61838e-11, No Iterations 2
DILUPBiCG:  Solving for Uy, Initial residual = 0.0616157, Final residual = 3.2428e-11, No Iterations 2
DILUPBiCG:  Solving for O2, Initial residual = 0.0474408, Final residual = 1.69224e-10, No Iterations 2
max of O2 = 0.23301
min of O2 = 0.00463177
DILUPBiCG:  Solving for H2O, Initial residual = 0.0758581, Final residual = 2.69434e-10, No Iterations 2
max of H2O = 0.00105275
min of H2O = 0
DILUPBiCG:  Solving for CH4, Initial residual = 0.037719, Final residual = 5.0052e-11, No Iterations 2
max of CH4 = 0.979948
min of CH4 = 0
DILUPBiCG:  Solving for CO2, Initial residual = 0.0756919, Final residual = 2.68731e-10, No Iterations 2
max of CO2 = 0.00128599
min of CO2 = 0
max of N2 = 0.76699
min of N2 = 0
DILUPBiCG:  Solving for hs, Initial residual = 0.0749186, Final residual = 1.69755e-10, No Iterations 2
GAMG:  Solving for p_rgh, Initial residual = 0.01635, Final residual = 8.65908e-05, No Iterations 4
diagonal:  Solving for rho, Initial residual = 0, Final residual = 0, No Iterations 0
time step continuity errors : sum local = 2.46299e-08, global = -5.53269e-09, cumulative = -2.642e-10
GAMG:  Solving for p_rgh, Initial residual = 0.000199669, Final residual = 7.78236e-07, No Iterations 5
diagonal:  Solving for rho, Initial residual = 0, Final residual = 0, No Iterations 0
time step continuity errors : sum local = 2.1519e-10, global = 1.07341e-11, cumulative = -2.53466e-10
DILUPBiCG:  Solving for k, Initial residual = 0.677035, Final residual = 4.04706e-11, No Iterations 2
ExecutionTime = 0.42 s  ClockTime = 1 s

Courant Number mean: 0.000961639 max: 0.0176612
deltaT = 0.0157459
faceSource patchSides output:
    sum(sides) for phi = 0.00160322
    sum(sides) for HRR_fu = -9.93407e-36
    sum(sides) for phiH = 0.0532136
    sum(sides) for phiHs = 1.61136e-05
    sum(sides) for phiHc = 0.0531975

faceSource patchOutlet output:
    sum(outlet) for phi = -6.48195e-06
    sum(outlet) for HRR_fu = -2.53289e-113
    sum(outlet) for phiH = -0.000206231
    sum(outlet) for phiHs = 8.85099e-06
    sum(outlet) for phiHc = -0.000215082

faceSource patchInlet output:
    sum(inlet) for phi = -0.0002
    sum(inlet) for HRR_fu = 10006.3
    sum(inlet) for phiH = 944.634
    sum(inlet) for phiHs = 0.0985562
    sum(inlet) for phiHc = 944.535

Calculating averages

Time = 0.12127

Cloud: reactingCloud1
    Total number of parcels added   = 0
    Total mass introduced           = 0
    Current number of parcels       = 0
    Current mass in system          = 0
    Mass transfer phase change      = 0

diagonal:  Solving for rho, Initial residual = 0, Final residual = 0, No Iterations 0
DILUPBiCG:  Solving for Ux, Initial residual = 0.0531137, Final residual = 2.91017e-11, No Iterations 2
DILUPBiCG:  Solving for Uy, Initial residual = 0.0536327, Final residual = 4.26883e-11, No Iterations 2
DILUPBiCG:  Solving for O2, Initial residual = 0.0419998, Final residual = 1.31386e-10, No Iterations 2
max of O2 = 0.23301
min of O2 = 0.00460248
DILUPBiCG:  Solving for H2O, Initial residual = 0.0649324, Final residual = 5.25492e-15, No Iterations 3
max of H2O = 0.0013939
min of H2O = 0
DILUPBiCG:  Solving for CH4, Initial residual = 0.0327728, Final residual = 6.66687e-11, No Iterations 2
max of CH4 = 0.980017
min of CH4 = 0
DILUPBiCG:  Solving for CO2, Initial residual = 0.0648308, Final residual = 5.24209e-15, No Iterations 3
max of CO2 = 0.0017027
min of CO2 = 0
max of N2 = 0.76699
min of N2 = 0
DILUPBiCG:  Solving for hs, Initial residual = 0.0650014, Final residual = 7.8623e-10, No Iterations 2
GAMG:  Solving for p_rgh, Initial residual = 0.0144774, Final residual = 7.19082e-05, No Iterations 5
diagonal:  Solving for rho, Initial residual = 0, Final residual = 0, No Iterations 0
time step continuity errors : sum local = 2.00933e-08, global = -1.95212e-09, cumulative = -2.20559e-09
GAMG:  Solving for p_rgh, Initial residual = 0.000137104, Final residual = 9.11542e-07, No Iterations 4
diagonal:  Solving for rho, Initial residual = 0, Final residual = 0, No Iterations 0
time step continuity errors : sum local = 3.00675e-10, global = 1.27556e-12, cumulative = -2.20431e-09
DILUPBiCG:  Solving for k, Initial residual = 0.611286, Final residual = 6.18698e-11, No Iterations 2
ExecutionTime = 0.44 s  ClockTime = 1 s

Courant Number mean: 0.00108906 max: 0.0193864
deltaT = 0.0157459
faceSource patchSides output:
    sum(sides) for phi = 0.00181528
    sum(sides) for HRR_fu = -1.40216e-34
    sum(sides) for phiH = 0.0602525
    sum(sides) for phiHs = 1.84107e-05
    sum(sides) for phiHc = 0.0602341

faceSource patchOutlet output:
    sum(outlet) for phi = -6.4857e-06
    sum(outlet) for HRR_fu = -5.55728e-111
    sum(outlet) for phiH = -0.000206585
    sum(outlet) for phiHs = 8.62197e-06
    sum(outlet) for phiHc = -0.000215207

faceSource patchInlet output:
    sum(inlet) for phi = -0.0002
    sum(inlet) for HRR_fu = 10006.3
    sum(inlet) for phiH = 944.615
    sum(inlet) for phiHs = 0.130541
    sum(inlet) for phiHc = 944.484

Calculating averages

Time = 0.137016

Cloud: reactingCloud1
    Total number of parcels added   = 0
    Total mass introduced           = 0
    Current number of parcels       = 0
    Current mass in system          = 0
    Mass transfer phase change      = 0

diagonal:  Solving for rho, Initial residual = 0, Final residual = 0, No Iterations 0
DILUPBiCG:  Solving for Ux, Initial residual = 0.0554983, Final residual = 3.97892e-11, No Iterations 2
DILUPBiCG:  Solving for Uy, Initial residual = 0.0567253, Final residual = 6.45463e-11, No Iterations 2
DILUPBiCG:  Solving for O2, Initial residual = 0.0378965, Final residual = 1.48235e-10, No Iterations 2
max of O2 = 0.23301
min of O2 = 0.00457102
DILUPBiCG:  Solving for H2O, Initial residual = 0.0567205, Final residual = 6.18208e-10, No Iterations 2
max of H2O = 0.00178436
min of H2O = 0
DILUPBiCG:  Solving for CH4, Initial residual = 0.0291847, Final residual = 1.00331e-10, No Iterations 2
max of CH4 = 0.980088
min of CH4 = 0
DILUPBiCG:  Solving for CO2, Initial residual = 0.0566552, Final residual = 6.18837e-10, No Iterations 2
max of CO2 = 0.00217963
min of CO2 = 0
max of N2 = 0.76699
min of N2 = 0
DILUPBiCG:  Solving for hs, Initial residual = 0.0570994, Final residual = 6.2832e-10, No Iterations 2
GAMG:  Solving for p_rgh, Initial residual = 0.0140352, Final residual = 0.000121636, No Iterations 4
diagonal:  Solving for rho, Initial residual = 0, Final residual = 0, No Iterations 0
time step continuity errors : sum local = 4.04969e-08, global = -1.83168e-09, cumulative = -4.03599e-09
GAMG:  Solving for p_rgh, Initial residual = 0.000247275, Final residual = 8.16592e-07, No Iterations 5
diagonal:  Solving for rho, Initial residual = 0, Final residual = 0, No Iterations 0
time step continuity errors : sum local = 2.73613e-10, global = 1.28399e-11, cumulative = -4.02315e-09
DILUPBiCG:  Solving for k, Initial residual = 0.549781, Final residual = 8.26279e-11, No Iterations 2
ExecutionTime = 0.47 s  ClockTime = 1 s

Courant Number mean: 0.0012143 max: 0.0209607
deltaT = 0.0157459
faceSource patchSides output:
    sum(sides) for phi = 0.00202848
    sum(sides) for HRR_fu = -2.45718e-33
    sum(sides) for phiH = 0.0673289
    sum(sides) for phiHs = 2.02667e-05
    sum(sides) for phiHc = 0.0673084

faceSource patchOutlet output:
    sum(outlet) for phi = -6.47668e-06
    sum(outlet) for HRR_fu = -5.73142e-109
    sum(outlet) for phiH = -0.000205753
    sum(outlet) for phiHs = 9.15401e-06
    sum(outlet) for phiHc = -0.000214907

faceSource patchInlet output:
    sum(inlet) for phi = -0.0002
    sum(inlet) for HRR_fu = 10006.3
    sum(inlet) for phiH = 944.598
    sum(inlet) for phiHs = 0.167139
    sum(inlet) for phiHc = 944.431

Calculating averages

Time = 0.152762

Cloud: reactingCloud1
    Total number of parcels added   = 0
    Total mass introduced           = 0
    Current number of parcels       = 0
    Current mass in system          = 0
    Mass transfer phase change      = 0

diagonal:  Solving for rho, Initial residual = 0, Final residual = 0, No Iterations 0
DILUPBiCG:  Solving for Ux, Initial residual = 0.0496531, Final residual = 4.17049e-11, No Iterations 2
DILUPBiCG:  Solving for Uy, Initial residual = 0.0502545, Final residual = 8.19363e-11, No Iterations 2
DILUPBiCG:  Solving for O2, Initial residual = 0.0346284, Final residual = 1.68276e-10, No Iterations 2
max of O2 = 0.23301
min of O2 = 0.00453736
DILUPBiCG:  Solving for H2O, Initial residual = 0.0503406, Final residual = 5.35383e-10, No Iterations 2
max of H2O = 0.00222424
min of H2O = 0
DILUPBiCG:  Solving for CH4, Initial residual = 0.0264134, Final residual = 7.18826e-10, No Iterations 2
max of CH4 = 0.980159
min of CH4 = 0
DILUPBiCG:  Solving for CO2, Initial residual = 0.050298, Final residual = 5.35148e-10, No Iterations 2
max of CO2 = 0.00271693
min of CO2 = 0
max of N2 = 0.76699
min of N2 = 0
DILUPBiCG:  Solving for hs, Initial residual = 0.0505298, Final residual = 5.47169e-10, No Iterations 2
GAMG:  Solving for p_rgh, Initial residual = 0.0119317, Final residual = 4.43739e-05, No Iterations 5
diagonal:  Solving for rho, Initial residual = 0, Final residual = 0, No Iterations 0
time step continuity errors : sum local = 1.50401e-08, global = -2.63045e-09, cumulative = -6.6536e-09
GAMG:  Solving for p_rgh, Initial residual = 0.000189586, Final residual = 8.05232e-07, No Iterations 4
diagonal:  Solving for rho, Initial residual = 0, Final residual = 0, No Iterations 0
time step continuity errors : sum local = 2.54643e-10, global = 3.78266e-12, cumulative = -6.64982e-09
DILUPBiCG:  Solving for k, Initial residual = 0.492156, Final residual = 1.11452e-10, No Iterations 2
ExecutionTime = 0.49 s  ClockTime = 1 s

Courant Number mean: 0.00132911 max: 0.0223422
deltaT = 0.0157459
faceSource patchSides output:
    sum(sides) for phi = 0.00222285
    sum(sides) for HRR_fu = -3.4476e-32
    sum(sides) for phiH = 0.0737823
    sum(sides) for phiHs = 2.41649e-05
    sum(sides) for phiHc = 0.0737581

faceSource patchOutlet output:
    sum(outlet) for phi = -6.47459e-06
    sum(outlet) for HRR_fu = -4.32234e-107
    sum(outlet) for phiH = -0.000205565
    sum(outlet) for phiHs = 9.27286e-06
    sum(outlet) for phiHc = -0.000214838

faceSource patchInlet output:
    sum(inlet) for phi = -0.0002
    sum(inlet) for HRR_fu = 10006.3
    sum(inlet) for phiH = 944.585
    sum(inlet) for phiHs = 0.20836
    sum(inlet) for phiHc = 944.376

Calculating averages

Time = 0.168508

Cloud: reactingCloud1
    Total number of parcels added   = 0
    Total mass introduced           = 0
    Current number of parcels       = 0
    Current mass in system          = 0
    Mass transfer phase change      = 0

diagonal:  Solving for rho, Initial residual = 0, Final residual = 0, No Iterations 0
DILUPBiCG:  Solving for Ux, Initial residual = 0.0419295, Final residual = 4.29171e-11, No Iterations 2
DILUPBiCG:  Solving for Uy, Initial residual = 0.0424604, Final residual = 9.79101e-11, No Iterations 2
DILUPBiCG:  Solving for O2, Initial residual = 0.0319489, Final residual = 1.91763e-10, No Iterations 2
max of O2 = 0.23301
min of O2 = 0.00450142
DILUPBiCG:  Solving for H2O, Initial residual = 0.0452572, Final residual = 5.42751e-10, No Iterations 2
max of H2O = 0.00271389
min of H2O = 0
DILUPBiCG:  Solving for CH4, Initial residual = 0.0241901, Final residual = 1.4409e-10, No Iterations 2
max of CH4 = 0.980233
min of CH4 = 0
DILUPBiCG:  Solving for CO2, Initial residual = 0.0452305, Final residual = 5.41818e-10, No Iterations 2
max of CO2 = 0.00331501
min of CO2 = 0
max of N2 = 0.76699
min of N2 = 0
DILUPBiCG:  Solving for hs, Initial residual = 0.0453505, Final residual = 5.56625e-10, No Iterations 2
GAMG:  Solving for p_rgh, Initial residual = 0.013589, Final residual = 8.5451e-05, No Iterations 4
diagonal:  Solving for rho, Initial residual = 0, Final residual = 0, No Iterations 0
time step continuity errors : sum local = 2.73639e-08, global = -5.89647e-09, cumulative = -1.25463e-08
GAMG:  Solving for p_rgh, Initial residual = 0.000245909, Final residual = 6.37777e-07, No Iterations 5
diagonal:  Solving for rho, Initial residual = 0, Final residual = 0, No Iterations 0
time step continuity errors : sum local = 2.01561e-10, global = 7.19405e-13, cumulative = -1.25456e-08
DILUPBiCG:  Solving for k, Initial residual = 0.42586, Final residual = 8.98549e-11, No Iterations 2
ExecutionTime = 0.51 s  ClockTime = 1 s

Courant Number mean: 0.00144072 max: 0.023561
deltaT = 0.0157459
faceSource patchSides output:
    sum(sides) for phi = 0.00241113
    sum(sides) for HRR_fu = -2.9387e-31
    sum(sides) for phiH = 0.0800313
    sum(sides) for phiHs = 2.6187e-05
    sum(sides) for phiHc = 0.0800053

faceSource patchOutlet output:
    sum(outlet) for phi = -6.48178e-06
    sum(outlet) for HRR_fu = -3.34514e-105
    sum(outlet) for phiH = -0.000206237
    sum(outlet) for phiHs = 8.83963e-06
    sum(outlet) for phiHc = -0.000215077

faceSource patchInlet output:
    sum(inlet) for phi = -0.0002
    sum(inlet) for HRR_fu = 10006.3
    sum(inlet) for phiH = 944.576
    sum(inlet) for phiHs = 0.254239
    sum(inlet) for phiHc = 944.321

Calculating averages

Time = 0.184254

Cloud: reactingCloud1
    Total number of parcels added   = 0
    Total mass introduced           = 0
    Current number of parcels       = 0
    Current mass in system          = 0
    Mass transfer phase change      = 0

diagonal:  Solving for rho, Initial residual = 0, Final residual = 0, No Iterations 0
DILUPBiCG:  Solving for Ux, Initial residual = 0.037753, Final residual = 4.5327e-11, No Iterations 2
DILUPBiCG:  Solving for Uy, Initial residual = 0.0383617, Final residual = 1.16506e-10, No Iterations 2
DILUPBiCG:  Solving for O2, Initial residual = 0.0297045, Final residual = 2.12871e-10, No Iterations 2
max of O2 = 0.23301
min of O2 = 0.00446315
DILUPBiCG:  Solving for H2O, Initial residual = 0.0411196, Final residual = 5.72556e-10, No Iterations 2
max of H2O = 0.00325387
min of H2O = 0
DILUPBiCG:  Solving for CH4, Initial residual = 0.0223585, Final residual = 1.43347e-10, No Iterations 2
max of CH4 = 0.980307
min of CH4 = 0
DILUPBiCG:  Solving for CO2, Initial residual = 0.0411052, Final residual = 5.70417e-10, No Iterations 2
max of CO2 = 0.00397458
min of CO2 = 0
max of N2 = 0.76699
min of N2 = 0
DILUPBiCG:  Solving for hs, Initial residual = 0.041139, Final residual = 5.90063e-10, No Iterations 2
GAMG:  Solving for p_rgh, Initial residual = 0.0133575, Final residual = 0.000102189, No Iterations 4
diagonal:  Solving for rho, Initial residual = 0, Final residual = 0, No Iterations 0
time step continuity errors : sum local = 3.26908e-08, global = -4.67518e-09, cumulative = -1.72208e-08
GAMG:  Solving for p_rgh, Initial residual = 0.000271294, Final residual = 7.03628e-07, No Iterations 5
diagonal:  Solving for rho, Initial residual = 0, Final residual = 0, No Iterations 0
time step continuity errors : sum local = 2.25935e-10, global = 2.26944e-13, cumulative = -1.72205e-08
DILUPBiCG:  Solving for k, Initial residual = 0.367334, Final residual = 5.15112e-11, No Iterations 2
ExecutionTime = 0.53 s  ClockTime = 1 s

Courant Number mean: 0.00155061 max: 0.0246383
deltaT = 0.0157459
faceSource patchSides output:
    sum(sides) for phi = 0.00259788
    sum(sides) for HRR_fu = -2.21899e-30
    sum(sides) for phiH = 0.0862289
    sum(sides) for phiHs = 2.68475e-05
    sum(sides) for phiHc = 0.0862021

faceSource patchOutlet output:
    sum(outlet) for phi = -6.48478e-06
    sum(outlet) for HRR_fu = -1.12139e-103
    sum(outlet) for phiH = -0.000206519
    sum(outlet) for phiHs = 8.65679e-06
    sum(outlet) for phiHc = -0.000215176

faceSource patchInlet output:
    sum(inlet) for phi = -0.0002
    sum(inlet) for HRR_fu = 10006.3
    sum(inlet) for phiH = 944.569
    sum(inlet) for phiHs = 0.304833
    sum(inlet) for phiHc = 944.264

Calculating averages

Time = 0.2

Cloud: reactingCloud1
    Total number of parcels added   = 0
    Total mass introduced           = 0
    Current number of parcels       = 0
    Current mass in system          = 0
    Mass transfer phase change      = 0

diagonal:  Solving for rho, Initial residual = 0, Final residual = 0, No Iterations 0
DILUPBiCG:  Solving for Ux, Initial residual = 0.0347833, Final residual = 5.17685e-11, No Iterations 2
DILUPBiCG:  Solving for Uy, Initial residual = 0.0351957, Final residual = 1.36532e-10, No Iterations 2
DILUPBiCG:  Solving for O2, Initial residual = 0.0277872, Final residual = 2.29888e-10, No Iterations 2
max of O2 = 0.23301
min of O2 = 0.00442246
DILUPBiCG:  Solving for H2O, Initial residual = 0.0376866, Final residual = 6.08735e-10, No Iterations 2
max of H2O = 0.00384501
min of H2O = 0
DILUPBiCG:  Solving for CH4, Initial residual = 0.0208113, Final residual = 1.52563e-10, No Iterations 2
max of CH4 = 0.980384
min of CH4 = 0
DILUPBiCG:  Solving for CO2, Initial residual = 0.0376851, Final residual = 6.04359e-10, No Iterations 2
max of CO2 = 0.00469663
min of CO2 = 0
max of N2 = 0.76699
min of N2 = 0
DILUPBiCG:  Solving for hs, Initial residual = 0.03765, Final residual = 6.32552e-10, No Iterations 2
GAMG:  Solving for p_rgh, Initial residual = 0.0133455, Final residual = 9.8358e-05, No Iterations 4
diagonal:  Solving for rho, Initial residual = 0, Final residual = 0, No Iterations 0
time step continuity errors : sum local = 3.19304e-08, global = -5.28641e-09, cumulative = -2.25069e-08
GAMG:  Solving for p_rgh, Initial residual = 0.000280551, Final residual = 6.70179e-07, No Iterations 5
diagonal:  Solving for rho, Initial residual = 0, Final residual = 0, No Iterations 0
time step continuity errors : sum local = 2.17361e-10, global = -1.84709e-12, cumulative = -2.25088e-08
DILUPBiCG:  Solving for k, Initial residual = 0.317745, Final residual = 4.39591e-10, No Iterations 2
ExecutionTime = 0.57 s  ClockTime = 1 s

Courant Number mean: 0.00165859 max: 0.0255957
deltaT = 0.0181818
faceSource patchSides output:
    sum(sides) for phi = 0.00278211
    sum(sides) for HRR_fu = -1.42289e-29
    sum(sides) for phiH = 0.0923433
    sum(sides) for phiHs = 2.82581e-05
    sum(sides) for phiHc = 0.0923151

faceSource patchOutlet output:
    sum(outlet) for phi = -6.4849e-06
    sum(outlet) for HRR_fu = -2.88463e-102
    sum(outlet) for phiH = -0.000206536
    sum(outlet) for phiHs = 8.64428e-06
    sum(outlet) for phiHc = -0.00021518

faceSource patchInlet output:
    sum(inlet) for phi = -0.0002
    sum(inlet) for HRR_fu = 10006.3
    sum(inlet) for phiH = 944.566
    sum(inlet) for phiHs = 0.360223
    sum(inlet) for phiHc = 944.206

Calculating averages

Time = 0.218182

Cloud: reactingCloud1
    Total number of parcels added   = 0
    Total mass introduced           = 0
    Current number of parcels       = 0
    Current mass in system          = 0
    Mass transfer phase change      = 0

diagonal:  Solving for rho, Initial residual = 0, Final residual = 0, No Iterations 0
DILUPBiCG:  Solving for Ux, Initial residual = 0.0369558, Final residual = 1.3299e-10, No Iterations 2
DILUPBiCG:  Solving for Uy, Initial residual = 0.0375143, Final residual = 3.35317e-10, No Iterations 2
DILUPBiCG:  Solving for O2, Initial residual = 0.0300158, Final residual = 4.86822e-10, No Iterations 2
max of O2 = 0.23301
min of O2 = 0.00437285
DILUPBiCG:  Solving for H2O, Initial residual = 0.039849, Final residual = 1.29802e-09, No Iterations 2
max of H2O = 0.00458224
min of H2O = 0
DILUPBiCG:  Solving for CH4, Initial residual = 0.0224625, Final residual = 3.30638e-10, No Iterations 2
max of CH4 = 0.980475
min of CH4 = 0
DILUPBiCG:  Solving for CO2, Initial residual = 0.0398621, Final residual = 1.28059e-09, No Iterations 2
max of CO2 = 0.00559713
min of CO2 = 0
max of N2 = 0.76699
min of N2 = 0
DILUPBiCG:  Solving for hs, Initial residual = 0.0397682, Final residual = 1.37405e-09, No Iterations 2
GAMG:  Solving for p_rgh, Initial residual = 0.0211079, Final residual = 0.000102341, No Iterations 5
diagonal:  Solving for rho, Initial residual = 0, Final residual = 0, No Iterations 0
time step continuity errors : sum local = 4.47276e-08, global = -8.11617e-09, cumulative = -3.0625e-08
GAMG:  Solving for p_rgh, Initial residual = 0.0005218, Final residual = 6.50096e-07, No Iterations 5
diagonal:  Solving for rho, Initial residual = 0, Final residual = 0, No Iterations 0
time step continuity errors : sum local = 2.48326e-10, global = -2.37618e-11, cumulative = -3.06487e-08
DILUPBiCG:  Solving for k, Initial residual = 0.306622, Final residual = 1.44485e-09, No Iterations 2
ExecutionTime = 0.59 s  ClockTime = 1 s

Courant Number mean: 0.0020329 max: 0.030602
deltaT = 0.020202
faceSource patchSides output:
    sum(sides) for phi = 0.00295962
    sum(sides) for HRR_fu = -8.17226e-29
    sum(sides) for phiH = 0.0982349
    sum(sides) for phiHs = 2.98611e-05
    sum(sides) for phiHc = 0.0982051

faceSource patchOutlet output:
    sum(outlet) for phi = -7.48804e-06
    sum(outlet) for HRR_fu = -5.66806e-100
    sum(outlet) for phiH = -0.000239874
    sum(outlet) for phiHs = 8.59225e-06
    sum(outlet) for phiHc = -0.000248466

faceSource patchInlet output:
    sum(inlet) for phi = -0.0002
    sum(inlet) for HRR_fu = 10006.3
    sum(inlet) for phiH = 944.565
    sum(inlet) for phiHs = 0.42938
    sum(inlet) for phiHc = 944.136

Calculating averages

Time = 0.238384

Cloud: reactingCloud1
    Total number of parcels added   = 0
    Total mass introduced           = 0
    Current number of parcels       = 0
    Current mass in system          = 0
    Mass transfer phase change      = 0

diagonal:  Solving for rho, Initial residual = 0, Final residual = 0, No Iterations 0
DILUPBiCG:  Solving for Ux, Initial residual = 0.0323591, Final residual = 2.87743e-10, No Iterations 2
DILUPBiCG:  Solving for Uy, Initial residual = 0.0325108, Final residual = 5.94461e-10, No Iterations 2
DILUPBiCG:  Solving for O2, Initial residual = 0.0310287, Final residual = 7.89567e-10, No Iterations 2
max of O2 = 0.23301
min of O2 = 0.00431417
DILUPBiCG:  Solving for H2O, Initial residual = 0.0404534, Final residual = 2.20661e-09, No Iterations 2
max of H2O = 0.00547427
min of H2O = 0
DILUPBiCG:  Solving for CH4, Initial residual = 0.02314, Final residual = 5.82195e-10, No Iterations 2
max of CH4 = 0.98058
min of CH4 = 0
DILUPBiCG:  Solving for CO2, Initial residual = 0.040478, Final residual = 2.17785e-09, No Iterations 2
max of CO2 = 0.00668671
min of CO2 = 0
max of N2 = 0.76699
min of N2 = 0
DILUPBiCG:  Solving for hs, Initial residual = 0.0402952, Final residual = 2.41734e-09, No Iterations 2
GAMG:  Solving for p_rgh, Initial residual = 0.0245879, Final residual = 0.000113034, No Iterations 4
diagonal:  Solving for rho, Initial residual = 0, Final residual = 0, No Iterations 0
time step continuity errors : sum local = 5.37843e-08, global = -1.2586e-08, cumulative = -4.32347e-08
GAMG:  Solving for p_rgh, Initial residual = 0.000497943, Final residual = 7.39254e-07, No Iterations 5
diagonal:  Solving for rho, Initial residual = 0, Final residual = 0, No Iterations 0
time step continuity errors : sum local = 3.48695e-10, global = -2.60499e-11, cumulative = -4.32607e-08
DILUPBiCG:  Solving for k, Initial residual = 0.286749, Final residual = 9.08998e-10, No Iterations 2
ExecutionTime = 0.61 s  ClockTime = 1 s

Courant Number mean: 0.002402 max: 0.036757
deltaT = 0.023088
faceSource patchSides output:
    sum(sides) for phi = 0.00315141
    sum(sides) for HRR_fu = -7.6291e-28
    sum(sides) for phiH = 0.1046
    sum(sides) for phiHs = 3.14499e-05
    sum(sides) for phiHc = 0.104569

faceSource patchOutlet output:
    sum(outlet) for phi = -8.33129e-06
    sum(outlet) for HRR_fu = -2.7134e-97
    sum(outlet) for phiH = -0.000268422
    sum(outlet) for phiHs = 8.02451e-06
    sum(outlet) for phiHc = -0.000276446

faceSource patchInlet output:
    sum(inlet) for phi = -0.0002
    sum(inlet) for HRR_fu = 10006.3
    sum(inlet) for phiH = 944.57
    sum(inlet) for phiHs = 0.51315
    sum(inlet) for phiHc = 944.057

Calculating averages

Time = 0.261472

Cloud: reactingCloud1
    Total number of parcels added   = 0
    Total mass introduced           = 0
    Current number of parcels       = 0
    Current mass in system          = 0
    Mass transfer phase change      = 0

diagonal:  Solving for rho, Initial residual = 0, Final residual = 0, No Iterations 0
DILUPBiCG:  Solving for Ux, Initial residual = 0.0343035, Final residual = 7.94345e-10, No Iterations 2
DILUPBiCG:  Solving for Uy, Initial residual = 0.0349431, Final residual = 1.39522e-09, No Iterations 2
DILUPBiCG:  Solving for O2, Initial residual = 0.0328963, Final residual = 1.50438e-09, No Iterations 2
max of O2 = 0.23301
min of O2 = 0.00424257
DILUPBiCG:  Solving for H2O, Initial residual = 0.0421461, Final residual = 4.60581e-09, No Iterations 2
max of H2O = 0.0065902
min of H2O = 0
DILUPBiCG:  Solving for CH4, Initial residual = 0.0244891, Final residual = 1.16113e-09, No Iterations 2
max of CH4 = 0.980703
min of CH4 = 0
DILUPBiCG:  Solving for CO2, Initial residual = 0.0421729, Final residual = 4.6172e-09, No Iterations 2
max of CO2 = 0.00804978
min of CO2 = 0
max of N2 = 0.76699
min of N2 = 0
DILUPBiCG:  Solving for hs, Initial residual = 0.0419056, Final residual = 5.1127e-09, No Iterations 2
GAMG:  Solving for p_rgh, Initial residual = 0.0327141, Final residual = 0.000204551, No Iterations 4
diagonal:  Solving for rho, Initial residual = 0, Final residual = 0, No Iterations 0
time step continuity errors : sum local = 1.27869e-07, global = -1.8317e-08, cumulative = -6.15777e-08
GAMG:  Solving for p_rgh, Initial residual = 0.000832327, Final residual = 4.69905e-07, No Iterations 6
diagonal:  Solving for rho, Initial residual = 0, Final residual = 0, No Iterations 0
time step continuity errors : sum local = 2.92141e-10, global = -2.46441e-11, cumulative = -6.16024e-08
DILUPBiCG:  Solving for k, Initial residual = 0.273869, Final residual = 1.8873e-09, No Iterations 2
ExecutionTime = 0.63 s  ClockTime = 1 s

Courant Number mean: 0.0029254 max: 0.0456317
deltaT = 0.0277056
faceSource patchSides output:
    sum(sides) for phi = 0.00336574
    sum(sides) for HRR_fu = -1.29804e-26
    sum(sides) for phiH = 0.111711
    sum(sides) for phiHs = 3.03071e-05
    sum(sides) for phiHc = 0.111681

faceSource patchOutlet output:
    sum(outlet) for phi = -9.52452e-06
    sum(outlet) for HRR_fu = -2.29375e-94
    sum(outlet) for phiH = -0.000308205
    sum(outlet) for phiHs = 7.83509e-06
    sum(outlet) for phiHc = -0.00031604

faceSource patchInlet output:
    sum(inlet) for phi = -0.0002
    sum(inlet) for HRR_fu = 10006.3
    sum(inlet) for phiH = 944.579
    sum(inlet) for phiHs = 0.617627
    sum(inlet) for phiHc = 943.962

Calculating averages

Time = 0.289177

Cloud: reactingCloud1
    Total number of parcels added   = 0
    Total mass introduced           = 0
    Current number of parcels       = 0
    Current mass in system          = 0
    Mass transfer phase change      = 0

diagonal:  Solving for rho, Initial residual = 0, Final residual = 0, No Iterations 0
DILUPBiCG:  Solving for Ux, Initial residual = 0.0380782, Final residual = 2.81159e-09, No Iterations 2
DILUPBiCG:  Solving for Uy, Initial residual = 0.0386797, Final residual = 4.18073e-09, No Iterations 2
DILUPBiCG:  Solving for O2, Initial residual = 0.0349131, Final residual = 3.35646e-09, No Iterations 2
max of O2 = 0.23301
min of O2 = 0.00415697
DILUPBiCG:  Solving for H2O, Initial residual = 0.0427267, Final residual = 3.06382e-12, No Iterations 3
max of H2O = 0.00788004
min of H2O = 0
DILUPBiCG:  Solving for CH4, Initial residual = 0.0272184, Final residual = 2.8427e-09, No Iterations 2
max of CH4 = 0.980859
min of CH4 = 0
DILUPBiCG:  Solving for CO2, Initial residual = 0.0427148, Final residual = 3.06648e-12, No Iterations 3
max of CO2 = 0.00962526
min of CO2 = 0
max of N2 = 0.76699
min of N2 = 0
DILUPBiCG:  Solving for hs, Initial residual = 0.0424638, Final residual = 3.61158e-12, No Iterations 3
GAMG:  Solving for p_rgh, Initial residual = 0.0555461, Final residual = 0.000342309, No Iterations 5
diagonal:  Solving for rho, Initial residual = 0, Final residual = 0, No Iterations 0
time step continuity errors : sum local = 3.17234e-07, global = -5.96809e-08, cumulative = -1.21283e-07
GAMG:  Solving for p_rgh, Initial residual = 0.00412263, Final residual = 3.16639e-07, No Iterations 7
diagonal:  Solving for rho, Initial residual = 0, Final residual = 0, No Iterations 0
time step continuity errors : sum local = 1.49402e-10, global = -2.41859e-12, cumulative = -1.21286e-07
DILUPBiCG:  Solving for k, Initial residual = 0.267245, Final residual = 4.17422e-09, No Iterations 2
ExecutionTime = 0.66 s  ClockTime = 1 s

Courant Number mean: 0.00355884 max: 0.05704
deltaT = 0.0277056
faceSource patchSides output:
    sum(sides) for phi = 0.00343275
    sum(sides) for HRR_fu = -1.73555e-25
    sum(sides) for phiH = 0.113935
    sum(sides) for phiHs = 3.03744e-05
    sum(sides) for phiHc = 0.113904

faceSource patchOutlet output:
    sum(outlet) for phi = -1.14268e-05
    sum(outlet) for HRR_fu = -1.05295e-90
    sum(outlet) for phiH = -0.000371339
    sum(outlet) for phiHs = 7.82116e-06
    sum(outlet) for phiHc = -0.00037916

faceSource patchInlet output:
    sum(inlet) for phi = -0.000199999
    sum(inlet) for HRR_fu = 10006.3
    sum(inlet) for phiH = 944.578
    sum(inlet) for phiHs = 0.738109
    sum(inlet) for phiHc = 943.84

Calculating averages

Time = 0.316883

Cloud: reactingCloud1
    Total number of parcels added   = 0
    Total mass introduced           = 0
    Current number of parcels       = 0
    Current mass in system          = 0
    Mass transfer phase change      = 0

diagonal:  Solving for rho, Initial residual = 0, Final residual = 0, No Iterations 0
DILUPBiCG:  Solving for Ux, Initial residual = 0.0139835, Final residual = 1.47142e-09, No Iterations 2
DILUPBiCG:  Solving for Uy, Initial residual = 0.0138124, Final residual = 2.00563e-09, No Iterations 2
DILUPBiCG:  Solving for O2, Initial residual = 0.030249, Final residual = 2.42651e-09, No Iterations 2
max of O2 = 0.23301
min of O2 = 0.00406993
DILUPBiCG:  Solving for H2O, Initial residual = 0.0361933, Final residual = 4.07426e-11, No Iterations 3
max of H2O = 0.00914602
min of H2O = 0
DILUPBiCG:  Solving for CH4, Initial residual = 0.0239685, Final residual = 2.05143e-09, No Iterations 2
max of CH4 = 0.981024
min of CH4 = 0
DILUPBiCG:  Solving for CO2, Initial residual = 0.0361929, Final residual = 3.97179e-11, No Iterations 3
max of CO2 = 0.0111716
min of CO2 = 0
max of N2 = 0.76699
min of N2 = 0
DILUPBiCG:  Solving for hs, Initial residual = 0.0360409, Final residual = 3.18322e-11, No Iterations 3
GAMG:  Solving for p_rgh, Initial residual = 0.0922994, Final residual = 0.000525243, No Iterations 4
diagonal:  Solving for rho, Initial residual = 0, Final residual = 0, No Iterations 0
time step continuity errors : sum local = 2.61787e-07, global = -2.05162e-08, cumulative = -1.41802e-07
GAMG:  Solving for p_rgh, Initial residual = 0.00301298, Final residual = 7.94181e-07, No Iterations 7
diagonal:  Solving for rho, Initial residual = 0, Final residual = 0, No Iterations 0
time step continuity errors : sum local = 3.39563e-10, global = 5.20998e-11, cumulative = -1.4175e-07
DILUPBiCG:  Solving for k, Initial residual = 0.228313, Final residual = 3.479e-09, No Iterations 2
ExecutionTime = 0.68 s  ClockTime = 1 s

Courant Number mean: 0.00357637 max: 0.0590961
deltaT = 0.0277056
faceSource patchSides output:
    sum(sides) for phi = 0.00345879
    sum(sides) for HRR_fu = -1.0477e-24
    sum(sides) for phiH = 0.114798
    sum(sides) for phiHs = 2.99807e-05
    sum(sides) for phiHc = 0.114768

faceSource patchOutlet output:
    sum(outlet) for phi = -1.14929e-05
    sum(outlet) for HRR_fu = -2.4289e-89
    sum(outlet) for phiH = -0.000375763
    sum(outlet) for phiHs = 5.58957e-06
    sum(outlet) for phiHc = -0.000381353

faceSource patchInlet output:
    sum(inlet) for phi = -0.0002
    sum(inlet) for HRR_fu = 10006.3
    sum(inlet) for phiH = 944.573
    sum(inlet) for phiHs = 0.855952
    sum(inlet) for phiHc = 943.717

Calculating averages

Time = 0.344589

Cloud: reactingCloud1
    Total number of parcels added   = 0
    Total mass introduced           = 0
    Current number of parcels       = 0
    Current mass in system          = 0
    Mass transfer phase change      = 0

diagonal:  Solving for rho, Initial residual = 0, Final residual = 0, No Iterations 0
DILUPBiCG:  Solving for Ux, Initial residual = 0.010525, Final residual = 8.71154e-10, No Iterations 2
DILUPBiCG:  Solving for Uy, Initial residual = 0.0132598, Final residual = 2.14199e-09, No Iterations 2
[...]
faceSource patchSides output:
    sum(sides) for phi = -0.159842
    sum(sides) for HRR_fu = -7.04003e-05
    sum(sides) for phiH = -5.31432
    sum(sides) for phiHs = -0.000424711
    sum(sides) for phiHc = -5.3139

faceSource patchOutlet output:
    sum(outlet) for phi = 0.135039
    sum(outlet) for HRR_fu = -198.138
    sum(outlet) for phiH = -43532.6
    sum(outlet) for phiHs = 11014.7
    sum(outlet) for phiHc = -54557.3

faceSource patchInlet output:
    sum(inlet) for phi = -0.000200001
    sum(inlet) for HRR_fu = 10006.3
    sum(inlet) for phiH = 946.874
    sum(inlet) for phiHs = 4.01638
    sum(inlet) for phiHc = 942.858

Calculating averages

Time = 9.84762


--> Cloud: reactingCloud1
    Added 51 new parcels

Cloud: reactingCloud1
    Total number of parcels added   = 11711
    Total mass introduced           = 0.0584762
    Current number of parcels       = 2553
    Current mass in system          = 0.00908648
    Mass transfer phase change      = 0.0125926

diagonal:  Solving for rho, Initial residual = 0, Final residual = 0, No Iterations 0
DILUPBiCG:  Solving for Ux, Initial residual = 0.0329856, Final residual = 1.33534e-08, No Iterations 5
DILUPBiCG:  Solving for Uy, Initial residual = 0.0268307, Final residual = 6.79089e-09, No Iterations 5
DILUPBiCG:  Solving for O2, Initial residual = 0.0203758, Final residual = 1.48488e-09, No Iterations 5
max of O2 = 0.23301
min of O2 = 0.000590812
DILUPBiCG:  Solving for H2O, Initial residual = 0.0191489, Final residual = 2.12082e-09, No Iterations 5
max of H2O = 0.122911
min of H2O = 0
DILUPBiCG:  Solving for CH4, Initial residual = 0.00910383, Final residual = 4.14081e-09, No Iterations 4
max of CH4 = 0.983397
min of CH4 = 0
DILUPBiCG:  Solving for CO2, Initial residual = 0.0184858, Final residual = 6.29255e-09, No Iterations 5
max of CO2 = 0.0936161
min of CO2 = 0
max of N2 = 0.770358
min of N2 = 0
DILUPBiCG:  Solving for hs, Initial residual = 0.0210724, Final residual = 5.24365e-09, No Iterations 5
GAMG:  Solving for p_rgh, Initial residual = 0.086619, Final residual = 0.00048638, No Iterations 3
diagonal:  Solving for rho, Initial residual = 0, Final residual = 0, No Iterations 0
time step continuity errors : sum local = 0.000164412, global = 0.000110066, cumulative = 0.0723754
GAMG:  Solving for p_rgh, Initial residual = 0.0142599, Final residual = 5.18334e-07, No Iterations 8
diagonal:  Solving for rho, Initial residual = 0, Final residual = 0, No Iterations 0
time step continuity errors : sum local = 0.000122733, global = 0.000122716, cumulative = 0.0724981
DILUPBiCG:  Solving for k, Initial residual = 0.0226581, Final residual = 2.62847e-09, No Iterations 5
ExecutionTime = 12.69 s  ClockTime = 14 s

Courant Number mean: 0.226093 max: 2.55464
deltaT = 0.0253968
faceSource patchSides output:
    sum(sides) for phi = -0.158824
    sum(sides) for HRR_fu = -6.07142e-05
    sum(sides) for phiH = -5.27845
    sum(sides) for phiHs = -0.000330937
    sum(sides) for phiHc = -5.27812

faceSource patchOutlet output:
    sum(outlet) for phi = 0.134133
    sum(outlet) for HRR_fu = -208.539
    sum(outlet) for phiH = -45255.5
    sum(outlet) for phiHs = 11747.6
    sum(outlet) for phiHc = -57012.5

faceSource patchInlet output:
    sum(inlet) for phi = -0.0002
    sum(inlet) for HRR_fu = 10006.3
    sum(inlet) for phiH = 946.99
    sum(inlet) for phiHs = 4.08659
    sum(inlet) for phiHc = 942.903

Calculating averages

Time = 9.87302


--> Cloud: reactingCloud1
    Added 51 new parcels

Cloud: reactingCloud1
    Total number of parcels added   = 11762
    Total mass introduced           = 0.0587302
    Current number of parcels       = 2569
    Current mass in system          = 0.00915833
    Mass transfer phase change      = 0.0126336

diagonal:  Solving for rho, Initial residual = 0, Final residual = 0, No Iterations 0
DILUPBiCG:  Solving for Ux, Initial residual = 0.0312317, Final residual = 1.11612e-08, No Iterations 5
DILUPBiCG:  Solving for Uy, Initial residual = 0.0266486, Final residual = 7.48167e-09, No Iterations 5
DILUPBiCG:  Solving for O2, Initial residual = 0.0199259, Final residual = 1.03251e-09, No Iterations 5
max of O2 = 0.23301
min of O2 = 0.000597467
DILUPBiCG:  Solving for H2O, Initial residual = 0.018603, Final residual = 1.35701e-09, No Iterations 5
max of H2O = 0.122969
min of H2O = 0
DILUPBiCG:  Solving for CH4, Initial residual = 0.00875802, Final residual = 4.0716e-09, No Iterations 4
max of CH4 = 0.983471
min of CH4 = 0
DILUPBiCG:  Solving for CO2, Initial residual = 0.0183292, Final residual = 6.50503e-11, No Iterations 6
max of CO2 = 0.092379
min of CO2 = 0
max of N2 = 0.769479
min of N2 = 0
DILUPBiCG:  Solving for hs, Initial residual = 0.0208359, Final residual = 3.28067e-09, No Iterations 5
GAMG:  Solving for p_rgh, Initial residual = 0.0831324, Final residual = 0.000440881, No Iterations 3
diagonal:  Solving for rho, Initial residual = 0, Final residual = 0, No Iterations 0
time step continuity errors : sum local = 0.0001598, global = 0.000131447, cumulative = 0.0726295
GAMG:  Solving for p_rgh, Initial residual = 0.0137411, Final residual = 3.17795e-07, No Iterations 8
diagonal:  Solving for rho, Initial residual = 0, Final residual = 0, No Iterations 0
time step continuity errors : sum local = 0.000122063, global = 0.000122051, cumulative = 0.0727516
DILUPBiCG:  Solving for k, Initial residual = 0.0221379, Final residual = 1.74107e-09, No Iterations 5
ExecutionTime = 12.74 s  ClockTime = 14 s

Courant Number mean: 0.222157 max: 2.8309
deltaT = 0.0253968
faceSource patchSides output:
    sum(sides) for phi = -0.156564
    sum(sides) for HRR_fu = -5.30549e-05
    sum(sides) for phiH = -5.20193
    sum(sides) for phiHs = -0.000295121
    sum(sides) for phiHc = -5.20164

faceSource patchOutlet output:
    sum(outlet) for phi = 0.132126
    sum(outlet) for HRR_fu = -220.829
    sum(outlet) for phiH = -47202.5
    sum(outlet) for phiHs = 12577.5
    sum(outlet) for phiHc = -59789.6

faceSource patchInlet output:
    sum(inlet) for phi = -0.0002
    sum(inlet) for HRR_fu = 10006.3
    sum(inlet) for phiH = 947.075
    sum(inlet) for phiHs = 4.13294
    sum(inlet) for phiHc = 942.943

Calculating averages

Time = 9.89841


--> Cloud: reactingCloud1
    Added 51 new parcels

Cloud: reactingCloud1
    Total number of parcels added   = 11813
    Total mass introduced           = 0.0589841
    Current number of parcels       = 2584
    Current mass in system          = 0.00923768
    Mass transfer phase change      = 0.012675

diagonal:  Solving for rho, Initial residual = 0, Final residual = 0, No Iterations 0
DILUPBiCG:  Solving for Ux, Initial residual = 0.032677, Final residual = 9.18138e-09, No Iterations 5
DILUPBiCG:  Solving for Uy, Initial residual = 0.0275031, Final residual = 1.03967e-08, No Iterations 5
DILUPBiCG:  Solving for O2, Initial residual = 0.0195195, Final residual = 2.09163e-09, No Iterations 5
max of O2 = 0.23301
min of O2 = 0.000602758
DILUPBiCG:  Solving for H2O, Initial residual = 0.01841, Final residual = 2.90859e-09, No Iterations 5
max of H2O = 0.122993
min of H2O = 0
DILUPBiCG:  Solving for CH4, Initial residual = 0.00913096, Final residual = 2.08374e-09, No Iterations 4
max of CH4 = 0.983516
min of CH4 = 0
DILUPBiCG:  Solving for CO2, Initial residual = 0.0182297, Final residual = 6.59267e-11, No Iterations 6
max of CO2 = 0.0930846
min of CO2 = 0
max of N2 = 0.768563
min of N2 = 0
DILUPBiCG:  Solving for hs, Initial residual = 0.0207267, Final residual = 3.45317e-09, No Iterations 5
GAMG:  Solving for p_rgh, Initial residual = 0.0747621, Final residual = 0.00049291, No Iterations 3
diagonal:  Solving for rho, Initial residual = 0, Final residual = 0, No Iterations 0
time step continuity errors : sum local = 0.000156577, global = 0.000128268, cumulative = 0.0728799
GAMG:  Solving for p_rgh, Initial residual = 0.0132554, Final residual = 5.10064e-07, No Iterations 7
diagonal:  Solving for rho, Initial residual = 0, Final residual = 0, No Iterations 0
time step continuity errors : sum local = 0.000123015, global = 0.000122996, cumulative = 0.0730029
DILUPBiCG:  Solving for k, Initial residual = 0.0217605, Final residual = 1.24719e-09, No Iterations 5
ExecutionTime = 12.79 s  ClockTime = 14 s

Courant Number mean: 0.21735 max: 2.90786
deltaT = 0.0253968
faceSource patchSides output:
    sum(sides) for phi = -0.153139
    sum(sides) for HRR_fu = -4.70028e-05
    sum(sides) for phiH = -5.08714
    sum(sides) for phiHs = -0.000243154
    sum(sides) for phiHc = -5.0869

faceSource patchOutlet output:
    sum(outlet) for phi = 0.128031
    sum(outlet) for HRR_fu = -224.571
    sum(outlet) for phiH = -47533.1
    sum(outlet) for phiHs = 13135.5
    sum(outlet) for phiHc = -60675.6

faceSource patchInlet output:
    sum(inlet) for phi = -0.000199999
    sum(inlet) for HRR_fu = 10006.2
    sum(inlet) for phiH = 947.133
    sum(inlet) for phiHs = 4.15942
    sum(inlet) for phiHc = 942.974

Calculating averages

Time = 9.92381


--> Cloud: reactingCloud1
    Added 51 new parcels

Cloud: reactingCloud1
    Total number of parcels added   = 11864
    Total mass introduced           = 0.0592381
    Current number of parcels       = 2585
    Current mass in system          = 0.00927231
    Mass transfer phase change      = 0.0127167

diagonal:  Solving for rho, Initial residual = 0, Final residual = 0, No Iterations 0
DILUPBiCG:  Solving for Ux, Initial residual = 0.0305351, Final residual = 8.1893e-09, No Iterations 5
DILUPBiCG:  Solving for Uy, Initial residual = 0.0280158, Final residual = 8.92211e-09, No Iterations 5
DILUPBiCG:  Solving for O2, Initial residual = 0.0191064, Final residual = 2.09128e-09, No Iterations 5
max of O2 = 0.23301
min of O2 = 0.000611624
DILUPBiCG:  Solving for H2O, Initial residual = 0.018139, Final residual = 7.28238e-11, No Iterations 6
max of H2O = 0.123693
min of H2O = 0
DILUPBiCG:  Solving for CH4, Initial residual = 0.00974155, Final residual = 2.18106e-09, No Iterations 4
max of CH4 = 0.983522
min of CH4 = 0
DILUPBiCG:  Solving for CO2, Initial residual = 0.0179452, Final residual = 5.14911e-09, No Iterations 5
max of CO2 = 0.0940031
min of CO2 = 0
max of N2 = 0.768478
min of N2 = 0
DILUPBiCG:  Solving for hs, Initial residual = 0.020466, Final residual = 7.65769e-09, No Iterations 5
GAMG:  Solving for p_rgh, Initial residual = 0.0769093, Final residual = 0.000394641, No Iterations 3
diagonal:  Solving for rho, Initial residual = 0, Final residual = 0, No Iterations 0
time step continuity errors : sum local = 0.000148248, global = 0.000130334, cumulative = 0.0731332
GAMG:  Solving for p_rgh, Initial residual = 0.0133127, Final residual = 5.25639e-07, No Iterations 7
diagonal:  Solving for rho, Initial residual = 0, Final residual = 0, No Iterations 0
time step continuity errors : sum local = 0.000123943, global = 0.000123936, cumulative = 0.0732571
DILUPBiCG:  Solving for k, Initial residual = 0.0210243, Final residual = 2.22289e-09, No Iterations 5
ExecutionTime = 12.83 s  ClockTime = 14 s

Courant Number mean: 0.21075 max: 2.94948
deltaT = 0.0253968
faceSource patchSides output:
    sum(sides) for phi = -0.147218
    sum(sides) for HRR_fu = -4.21011e-05
    sum(sides) for phiH = -4.88978
    sum(sides) for phiHs = -0.000197351
    sum(sides) for phiHc = -4.88958

faceSource patchOutlet output:
    sum(outlet) for phi = 0.121852
    sum(outlet) for HRR_fu = -221.749
    sum(outlet) for phiH = -46555.9
    sum(outlet) for phiHs = 13305.8
    sum(outlet) for phiHc = -59864.7

faceSource patchInlet output:
    sum(inlet) for phi = -0.0002
    sum(inlet) for HRR_fu = 10006.3
    sum(inlet) for phiH = 947.177
    sum(inlet) for phiHs = 4.15939
    sum(inlet) for phiHc = 943.018

Calculating averages

Time = 9.94921


--> Cloud: reactingCloud1
    Added 51 new parcels

Cloud: reactingCloud1
    Total number of parcels added   = 11915
    Total mass introduced           = 0.0594921
    Current number of parcels       = 2580
    Current mass in system          = 0.00928897
    Mass transfer phase change      = 0.012759

diagonal:  Solving for rho, Initial residual = 0, Final residual = 0, No Iterations 0
DILUPBiCG:  Solving for Ux, Initial residual = 0.0325966, Final residual = 1.25124e-08, No Iterations 5
DILUPBiCG:  Solving for Uy, Initial residual = 0.0291041, Final residual = 7.56841e-09, No Iterations 5
DILUPBiCG:  Solving for O2, Initial residual = 0.0185393, Final residual = 2.4791e-09, No Iterations 5
max of O2 = 0.23301
min of O2 = 0.000593245
DILUPBiCG:  Solving for H2O, Initial residual = 0.0175858, Final residual = 3.65197e-09, No Iterations 5
max of H2O = 0.123008
min of H2O = 0
DILUPBiCG:  Solving for CH4, Initial residual = 0.00903263, Final residual = 2.20147e-09, No Iterations 4
max of CH4 = 0.983643
min of CH4 = 0
DILUPBiCG:  Solving for CO2, Initial residual = 0.0174695, Final residual = 9.20145e-09, No Iterations 5
max of CO2 = 0.0968717
min of CO2 = 0
max of N2 = 0.768251
min of N2 = 0
DILUPBiCG:  Solving for hs, Initial residual = 0.0201826, Final residual = 6.49227e-09, No Iterations 5
GAMG:  Solving for p_rgh, Initial residual = 0.0785092, Final residual = 0.000661961, No Iterations 3
diagonal:  Solving for rho, Initial residual = 0, Final residual = 0, No Iterations 0
time step continuity errors : sum local = 0.000173862, global = 0.000134588, cumulative = 0.0733917
GAMG:  Solving for p_rgh, Initial residual = 0.0129421, Final residual = 6.44921e-07, No Iterations 7
diagonal:  Solving for rho, Initial residual = 0, Final residual = 0, No Iterations 0
time step continuity errors : sum local = 0.000125377, global = 0.000125356, cumulative = 0.0735171
DILUPBiCG:  Solving for k, Initial residual = 0.0211268, Final residual = 2.05643e-09, No Iterations 5
ExecutionTime = 12.88 s  ClockTime = 14 s

Courant Number mean: 0.204063 max: 2.98468
deltaT = 0.0253968
faceSource patchSides output:
    sum(sides) for phi = -0.141057
    sum(sides) for HRR_fu = -3.81278e-05
    sum(sides) for phiH = -4.68463
    sum(sides) for phiHs = -0.000144604
    sum(sides) for phiHc = -4.68449

faceSource patchOutlet output:
    sum(outlet) for phi = 0.116205
    sum(outlet) for HRR_fu = -217.347
    sum(outlet) for phiH = -45654.7
    sum(outlet) for phiHs = 13194.8
    sum(outlet) for phiHc = -58851

faceSource patchInlet output:
    sum(inlet) for phi = -0.0002
    sum(inlet) for HRR_fu = 10006.3
    sum(inlet) for phiH = 947.167
    sum(inlet) for phiHs = 4.13873
    sum(inlet) for phiHc = 943.028

Calculating averages

Time = 9.9746


--> Cloud: reactingCloud1
    Added 51 new parcels

Cloud: reactingCloud1
    Total number of parcels added   = 11966
    Total mass introduced           = 0.059746
    Current number of parcels       = 2563
    Current mass in system          = 0.00930013
    Mass transfer phase change      = 0.0128008

diagonal:  Solving for rho, Initial residual = 0, Final residual = 0, No Iterations 0
DILUPBiCG:  Solving for Ux, Initial residual = 0.031679, Final residual = 2.02016e-08, No Iterations 5
DILUPBiCG:  Solving for Uy, Initial residual = 0.0292707, Final residual = 8.58305e-09, No Iterations 5
DILUPBiCG:  Solving for O2, Initial residual = 0.0182381, Final residual = 4.48689e-09, No Iterations 5
max of O2 = 0.23301
min of O2 = 0.000593407
DILUPBiCG:  Solving for H2O, Initial residual = 0.0171737, Final residual = 4.31404e-09, No Iterations 5
max of H2O = 0.121977
min of H2O = 0
DILUPBiCG:  Solving for CH4, Initial residual = 0.0100747, Final residual = 2.21045e-09, No Iterations 4
max of CH4 = 0.98372
min of CH4 = 0
DILUPBiCG:  Solving for CO2, Initial residual = 0.017246, Final residual = 1.50821e-10, No Iterations 6
max of CO2 = 0.0992017
min of CO2 = 0
max of N2 = 0.767895
min of N2 = 0
DILUPBiCG:  Solving for hs, Initial residual = 0.0199952, Final residual = 8.52519e-11, No Iterations 6
GAMG:  Solving for p_rgh, Initial residual = 0.0811977, Final residual = 0.00052535, No Iterations 3
diagonal:  Solving for rho, Initial residual = 0, Final residual = 0, No Iterations 0
time step continuity errors : sum local = 0.00016572, global = 0.000122288, cumulative = 0.0736394
GAMG:  Solving for p_rgh, Initial residual = 0.0129105, Final residual = 3.67999e-07, No Iterations 8
diagonal:  Solving for rho, Initial residual = 0, Final residual = 0, No Iterations 0
time step continuity errors : sum local = 0.000123675, global = 0.000123665, cumulative = 0.073763
DILUPBiCG:  Solving for k, Initial residual = 0.0210962, Final residual = 1.58923e-09, No Iterations 5
ExecutionTime = 12.93 s  ClockTime = 14 s

Courant Number mean: 0.198154 max: 3.00611
deltaT = 0.0253968
faceSource patchSides output:
    sum(sides) for phi = -0.136717
    sum(sides) for HRR_fu = -3.48782e-05
    sum(sides) for phiH = -4.54012
    sum(sides) for phiHs = -0.000111794
    sum(sides) for phiHc = -4.54001

faceSource patchOutlet output:
    sum(outlet) for phi = 0.113112
    sum(outlet) for HRR_fu = -209.027
    sum(outlet) for phiH = -43819
    sum(outlet) for phiHs = 12898.7
    sum(outlet) for phiHc = -56716

faceSource patchInlet output:
    sum(inlet) for phi = -0.0002
    sum(inlet) for HRR_fu = 10006.3
    sum(inlet) for phiH = 947.154
    sum(inlet) for phiHs = 4.10462
    sum(inlet) for phiHc = 943.05

Calculating averages

Time = 10


--> Cloud: reactingCloud1
    Added 51 new parcels

Cloud: reactingCloud1
    Total number of parcels added   = 12017
    Total mass introduced           = 0.06
    Current number of parcels       = 2538
    Current mass in system          = 0.00927242
    Mass transfer phase change      = 0.0128413

diagonal:  Solving for rho, Initial residual = 0, Final residual = 0, No Iterations 0
DILUPBiCG:  Solving for Ux, Initial residual = 0.0315824, Final residual = 2.49284e-08, No Iterations 5
DILUPBiCG:  Solving for Uy, Initial residual = 0.0286567, Final residual = 1.26443e-08, No Iterations 5
DILUPBiCG:  Solving for O2, Initial residual = 0.0179527, Final residual = 2.83232e-09, No Iterations 5
max of O2 = 0.23301
min of O2 = 0.000603518
DILUPBiCG:  Solving for H2O, Initial residual = 0.0167797, Final residual = 9.43212e-10, No Iterations 5
max of H2O = 0.12204
min of H2O = 0
DILUPBiCG:  Solving for CH4, Initial residual = 0.0113818, Final residual = 1.78606e-09, No Iterations 4
max of CH4 = 0.983788
min of CH4 = 0
DILUPBiCG:  Solving for CO2, Initial residual = 0.0168892, Final residual = 2.84729e-09, No Iterations 5
max of CO2 = 0.100994
min of CO2 = 0
max of N2 = 0.767541
min of N2 = 0
DILUPBiCG:  Solving for hs, Initial residual = 0.0197813, Final residual = 4.66102e-09, No Iterations 5
GAMG:  Solving for p_rgh, Initial residual = 0.0804194, Final residual = 0.000381014, No Iterations 3
diagonal:  Solving for rho, Initial residual = 0, Final residual = 0, No Iterations 0
time step continuity errors : sum local = 0.000142194, global = 0.000125148, cumulative = 0.0738882
GAMG:  Solving for p_rgh, Initial residual = 0.0132328, Final residual = 4.99962e-07, No Iterations 7
diagonal:  Solving for rho, Initial residual = 0, Final residual = 0, No Iterations 0
time step continuity errors : sum local = 0.000119438, global = 0.000119421, cumulative = 0.0740076
DILUPBiCG:  Solving for k, Initial residual = 0.0207262, Final residual = 5.55635e-10, No Iterations 5
ExecutionTime = 12.98 s  ClockTime = 14 s

faceSource patchSides output:
    sum(sides) for phi = -0.129512
    sum(sides) for HRR_fu = -3.22277e-05
    sum(sides) for phiH = -4.30064
    sum(sides) for phiHs = -0.00010759
    sum(sides) for phiHc = -4.30054

faceSource patchOutlet output:
    sum(outlet) for phi = 0.107836
    sum(outlet) for HRR_fu = -201.453
    sum(outlet) for phiH = -42267.7
    sum(outlet) for phiHs = 12516.5
    sum(outlet) for phiHc = -54781.1

faceSource patchInlet output:
    sum(inlet) for phi = -0.0002
    sum(inlet) for HRR_fu = 10006.3
    sum(inlet) for phiH = 947.183
    sum(inlet) for phiHs = 4.09098
    sum(inlet) for phiHc = 943.092

Calculating averages

End

