/*---------------------------------------------------------------------------*\
| =========                 |                                                 |
| \\      /  F ield         | OpenFOAM: The Open Source CFD Toolbox           |
|  \\    /   O peration     | Version:  1.7.x                                 |
|   \\  /    A nd           | Web:      www.OpenFOAM.com                      |
|    \\/     M anipulation  |                                                 |
\*---------------------------------------------------------------------------*/
Build  : 1.7.x-868d5097761f
Exec   : fireFoam
Date   : May 24 2011
Time   : 15:56:55
Host   : wangyUbuntu
PID    : 6141
Case   : /home/wangy/OpenFOAM/wangy-1.7.x/run/fireFoam/testBatteryFireFOAM/coFlowFlameSpray2D
nProcs : 1
SigFpe : Enabling floating point exception trapping (FOAM_SIGFPE).

// * * * * * * * * * * * * * * * * * * * * * * * * * * * * * * * * * * * * * //
FireFOAM Build Version:  75224d2d3d657d60a93020c7c07f76e3a2c45fe8
FireFOAM Build Time Stamp:  Tue May 24 13:54:54 EDT 2011
****************************************************
Create time

Create mesh for time = 0


Reading g
Reading thermophysical properties

Selecting thermodynamics package hsPsiMixtureThermoNew<singleStepReactingMixture<gasThermoPhysics>>
Selecting chemistryReader foamChemistryReader
Fuel heat of combustion :5.00314e+07
Mole based specieStoichCoeffs: 5(-2 2 -1 1 7.52)
stoichiometric air-fuel ratio :17.1204
stoichiometric oxygen-fuel ratio :3.98918
Max products: 5(0 0.123944 0 0.151392 0.724664)
mass based specieStoichCoeffs: 5(-3.98918 2.2459 -1 2.74329 13.1312)
Creating component thermo properties:
    multi-component carrier - 5 species
    liquids - 1 components
    solids - 0 components
Reading field p_rgh

Reading field U

Reading/calculating face flux field phi

Creating turbulence model

Selecting turbulence model type LESModel
Selecting LES turbulence model oneEqEddy
--> FOAM Warning : 
    From function cubeRootVolDelta::calcDelta()
    in file cubeRootVolDelta/cubeRootVolDelta.C at line 52
    Case is 2D, LES is not strictly applicable

oneEqEddyCoeffs
{
    ce              1.048;
    Prt             1;
    ck              0.094;
}

Creating combustion model

Selecting combustion model eddyDissipationModel
stoichiometric mixture fraction is = 0.0551866
Creating field DpDt

Calculating field g.h

Selecting radiationModel none
Creating pyrolysis model

Selecting pyrolysisModel none

Constructing reacting cloud
Constructing cloud functions
    none
Selecting DispersionModel none
Selecting DragModel SphereDrag
Selecting InjectionModel ConeInjection
    Constructing 2-D injection
Selecting pdfType RosinRammler
Selecting PatchInteractionModel StandardWallInteraction
Selecting SurfaceFilmModel none
Selecting U IntegrationScheme Euler
Selecting HeatTransferModel RanzMarshall
Selecting T IntegrationScheme Analytical
Selecting CompositionModel SinglePhaseMixture
Selecting PhaseChangeModel LiquidEvaporation

Constructing surface film model
Selecting surfaceFilmModel none
Courant Number mean: 0 max: 0

Starting time loop

Courant Number mean: 0 max: 0
deltaT = 0.0011976
cellSource HRR:
    total cells  = 1400
    total volume = 0.32



faceSource patchSides:
    total faces  = 80
    total area   = 0.16


faceSource patchOutlet:
    total faces  = 35
    total area   = 0.08


faceSource patchInlet:
    total faces  = 5
    total area   = 0.008


Reading/calculating field TMean

Reading/calculating field UMean

Reading/calculating field ftMean

Reading/calculating field dQMean

Reading/calculating field TPrime2Mean

Reading/calculating field ftPrime2Mean

fieldAverage: starting averaging at time 0

Time = 0.0011976

Cloud: reactingCloud1
    Current number of parcels       = 0
    Current mass in system          = 0
    Total number of parcels added   = 0
    Total mass introduced           = 0
    Mass transfer phase change      = 0
    min/max(T)      = 298.15, 298.15

diagonal:  Solving for rho, Initial residual = 0, Final residual = 0, No Iterations 0
DILUPBiCG:  Solving for Ux, Initial residual = 1, Final residual = 1.34929e-10, No Iterations 1
DILUPBiCG:  Solving for Uy, Initial residual = 1, Final residual = 5.38616e-11, No Iterations 1
DILUPBiCG:  Solving for O2, Initial residual = 0.00291956, Final residual = 7.77798e-13, No Iterations 1
max of O2 = 0.23301
min of O2 = 0.23301
DILUPBiCG:  Solving for H2O, Initial residual = 0, Final residual = 0, No Iterations 0
max of H2O = 0
min of H2O = 0
DILUPBiCG:  Solving for CH4, Initial residual = 0.999998, Final residual = 2.72054e-10, No Iterations 1
max of CH4 = 1.19448e-09
min of CH4 = 7.12914e-277
DILUPBiCG:  Solving for CO2, Initial residual = 0, Final residual = 0, No Iterations 0
max of CO2 = 0
min of CO2 = 0
max of N2 = 0.76699
min of N2 = 0
DILUPBiCG:  Solving for hs, Initial residual = 0, Final residual = 0, No Iterations 0
GAMG:  Solving for p_rgh, Initial residual = 0.894675, Final residual = 0.00693987, No Iterations 4
diagonal:  Solving for rho, Initial residual = 0, Final residual = 0, No Iterations 0
time step continuity errors : sum local = 1.04105e-08, global = 4.432e-09, cumulative = 4.432e-09
GAMG:  Solving for p_rgh, Initial residual = 0.083963, Final residual = 4.25254e-07, No Iterations 9
diagonal:  Solving for rho, Initial residual = 0, Final residual = 0, No Iterations 0
time step continuity errors : sum local = 3.24688e-12, global = 1.33098e-12, cumulative = 4.43333e-09
DILUPBiCG:  Solving for k, Initial residual = 1, Final residual = 1.26054e-10, No Iterations 1
ExecutionTime = 0.05 s  ClockTime = 0 s

Courant Number mean: 1.90024e-06 max: 0.000457847
deltaT = 0.00143023
faceSource patchSides output:
    sum(sides) for phi = -2.25629e-06
    sum(sides) for HRR_fu = -9.76321e-89
    sum(sides) for phiH = -7.48676e-05
    sum(sides) for phiHs = 0
    sum(sides) for phiHc = -7.48676e-05

faceSource patchOutlet output:
    sum(outlet) for phi = -5.04649e-07
    sum(outlet) for HRR_fu = 2.29492e-205
    sum(outlet) for phiH = -1.67451e-05
    sum(outlet) for phiHs = 0
    sum(outlet) for phiHc = -1.67451e-05

faceSource patchInlet output:
    sum(inlet) for phi = -0.000200013
    sum(inlet) for HRR_fu = 1.22072e-05
    sum(inlet) for phiH = 0.00553806
    sum(inlet) for phiHs = 0
    sum(inlet) for phiHc = 0.00553806

Calculating averages

Time = 0.00262784

Cloud: reactingCloud1
    Current number of parcels       = 0
    Current mass in system          = 0
    Total number of parcels added   = 0
    Total mass introduced           = 0
    Mass transfer phase change      = 0
    min/max(T)      = 298.15, 298.15

diagonal:  Solving for rho, Initial residual = 0, Final residual = 0, No Iterations 0
DILUPBiCG:  Solving for Ux, Initial residual = 0.373853, Final residual = 7.10871e-10, No Iterations 1
DILUPBiCG:  Solving for Uy, Initial residual = 0.264337, Final residual = 5.01091e-10, No Iterations 1
DILUPBiCG:  Solving for O2, Initial residual = 1, Final residual = 1.74818e-16, No Iterations 2
max of O2 = 0.23301
min of O2 = 0.0048499
DILUPBiCG:  Solving for H2O, Initial residual = 1, Final residual = 1.03597e-16, No Iterations 2
max of H2O = 0
min of H2O = -1.00117e-08
DILUPBiCG:  Solving for CH4, Initial residual = 1, Final residual = 1.05689e-16, No Iterations 2
max of CH4 = 0.979186
min of CH4 = 0
DILUPBiCG:  Solving for CO2, Initial residual = 1, Final residual = 1.03108e-16, No Iterations 2
max of CO2 = 0
min of CO2 = -1.49059e-08
max of N2 = 0.76699
min of N2 = 0
DILUPBiCG:  Solving for hs, Initial residual = 1, Final residual = 5.82698e-09, No Iterations 1
GAMG:  Solving for p_rgh, Initial residual = 0.32946, Final residual = 0.00101576, No Iterations 4
diagonal:  Solving for rho, Initial residual = 0, Final residual = 0, No Iterations 0
time step continuity errors : sum local = 6.00636e-09, global = 2.37658e-09, cumulative = 6.80991e-09
GAMG:  Solving for p_rgh, Initial residual = 0.0326177, Final residual = 4.16858e-07, No Iterations 9
diagonal:  Solving for rho, Initial residual = 0, Final residual = 0, No Iterations 0
time step continuity errors : sum local = 2.64222e-11, global = -2.63506e-11, cumulative = 6.78356e-09
DILUPBiCG:  Solving for k, Initial residual = 0.970883, Final residual = 3.25142e-10, No Iterations 1
ExecutionTime = 0.08 s  ClockTime = 0 s

Courant Number mean: 7.85034e-06 max: 0.00108784
deltaT = 0.00170148
faceSource patchSides output:
    sum(sides) for phi = 1.62605e-05
    sum(sides) for HRR_fu = -1.30241e-71
    sum(sides) for phiH = 0.000542078
    sum(sides) for phiHs = 2.26258e-06
    sum(sides) for phiHc = 0.000539552

faceSource patchOutlet output:
    sum(outlet) for phi = -6.00537e-07
    sum(outlet) for HRR_fu = -1.09225e-183
    sum(outlet) for phiH = -1.85133e-05
    sum(outlet) for phiHs = 1.41353e-06
    sum(outlet) for phiHc = -1.99268e-05

faceSource patchInlet output:
    sum(inlet) for phi = -0.0002
    sum(inlet) for HRR_fu = 10003
    sum(inlet) for phiH = 944.788
    sum(inlet) for phiHs = 1.44198e-05
    sum(inlet) for phiHc = 944.788

Calculating averages

Time = 0.00432932

Cloud: reactingCloud1
    Current number of parcels       = 0
    Current mass in system          = 0
    Total number of parcels added   = 0
    Total mass introduced           = 0
    Mass transfer phase change      = 0
    min/max(T)      = 298.15, 298.154

diagonal:  Solving for rho, Initial residual = 0, Final residual = 0, No Iterations 0
DILUPBiCG:  Solving for Ux, Initial residual = 0.303151, Final residual = 2.451e-09, No Iterations 1
DILUPBiCG:  Solving for Uy, Initial residual = 0.230517, Final residual = 1.61859e-09, No Iterations 1
DILUPBiCG:  Solving for O2, Initial residual = 0.199159, Final residual = 8.023e-16, No Iterations 2
max of O2 = 0.23301
min of O2 = 0.00477383
DILUPBiCG:  Solving for H2O, Initial residual = 1, Final residual = 4.05569e-13, No Iterations 1
max of H2O = 5.31689e-07
min of H2O = -9.91919e-07
DILUPBiCG:  Solving for CH4, Initial residual = 0.197242, Final residual = 5.09278e-16, No Iterations 2
max of CH4 = 0.979512
min of CH4 = 0
DILUPBiCG:  Solving for CO2, Initial residual = 1, Final residual = 3.30996e-13, No Iterations 1
max of CO2 = 6.46762e-07
min of CO2 = -1.22548e-06
max of N2 = 0.76699
min of N2 = 0
DILUPBiCG:  Solving for hs, Initial residual = 0.516669, Final residual = 3.49627e-16, No Iterations 2
GAMG:  Solving for p_rgh, Initial residual = 0.20864, Final residual = 0.000731938, No Iterations 4
diagonal:  Solving for rho, Initial residual = 0, Final residual = 0, No Iterations 0
time step continuity errors : sum local = 1.32967e-08, global = 3.44562e-09, cumulative = 1.02292e-08
GAMG:  Solving for p_rgh, Initial residual = 0.000481483, Final residual = 6.39169e-07, No Iterations 5
diagonal:  Solving for rho, Initial residual = 0, Final residual = 0, No Iterations 0
time step continuity errors : sum local = 2.21704e-11, global = 1.22628e-11, cumulative = 1.02414e-08
DILUPBiCG:  Solving for k, Initial residual = 0.94687, Final residual = 7.0515e-10, No Iterations 1
ExecutionTime = 0.1 s  ClockTime = 0 s

Courant Number mean: 1.79832e-05 max: 0.0012942
deltaT = 0.00203824
faceSource patchSides output:
    sum(sides) for phi = 9.91951e-05
    sum(sides) for HRR_fu = -4.98481e-65
    sum(sides) for phiH = 0.00329573
    sum(sides) for phiHs = 2.53544e-06
    sum(sides) for phiHc = 0.00329146

faceSource patchOutlet output:
    sum(outlet) for phi = -7.11728e-07
    sum(outlet) for HRR_fu = -9.89738e-175
    sum(outlet) for phiH = -2.06936e-05
    sum(outlet) for phiHs = 2.9228e-06
    sum(outlet) for phiHc = -2.36164e-05

faceSource patchInlet output:
    sum(inlet) for phi = -0.000199997
    sum(inlet) for HRR_fu = 10006.1
    sum(inlet) for phiH = 944.839
    sum(inlet) for phiHs = 7.21625e-05
    sum(inlet) for phiHc = 944.839

Calculating averages

Time = 0.00636756

Cloud: reactingCloud1
    Current number of parcels       = 0
    Current mass in system          = 0
    Total number of parcels added   = 0
    Total mass introduced           = 0
    Mass transfer phase change      = 0
    min/max(T)      = 298.15, 298.167

diagonal:  Solving for rho, Initial residual = 0, Final residual = 0, No Iterations 0
DILUPBiCG:  Solving for Ux, Initial residual = 0.237838, Final residual = 1.06633e-09, No Iterations 1
DILUPBiCG:  Solving for Uy, Initial residual = 0.201363, Final residual = 9.48516e-10, No Iterations 1
DILUPBiCG:  Solving for O2, Initial residual = 0.120576, Final residual = 1.02155e-15, No Iterations 2
max of O2 = 0.23301
min of O2 = 0.00477179
DILUPBiCG:  Solving for H2O, Initial residual = 0.0468046, Final residual = 2.25768e-10, No Iterations 1
max of H2O = 1.951e-06
min of H2O = -1.05754e-06
DILUPBiCG:  Solving for CH4, Initial residual = 0.118507, Final residual = 1.03685e-15, No Iterations 2
max of CH4 = 0.979521
min of CH4 = 0
DILUPBiCG:  Solving for CO2, Initial residual = 0.0388045, Final residual = 1.84146e-10, No Iterations 1
max of CO2 = 2.38039e-06
min of CO2 = -1.29183e-06
max of N2 = 0.766992
min of N2 = 0
DILUPBiCG:  Solving for hs, Initial residual = 0.311771, Final residual = 9.40509e-16, No Iterations 2
GAMG:  Solving for p_rgh, Initial residual = 0.108385, Final residual = 0.000697621, No Iterations 4
diagonal:  Solving for rho, Initial residual = 0, Final residual = 0, No Iterations 0
time step continuity errors : sum local = 2.52079e-08, global = 9.3292e-09, cumulative = 1.95706e-08
GAMG:  Solving for p_rgh, Initial residual = 0.000584229, Final residual = 3.50989e-07, No Iterations 6
diagonal:  Solving for rho, Initial residual = 0, Final residual = 0, No Iterations 0
time step continuity errors : sum local = 1.5953e-11, global = 5.94697e-12, cumulative = 1.95766e-08
DILUPBiCG:  Solving for k, Initial residual = 0.927628, Final residual = 1.26264e-09, No Iterations 1
ExecutionTime = 0.12 s  ClockTime = 0 s

Courant Number mean: 3.27431e-05 max: 0.00155036
deltaT = 0.00242041
faceSource patchSides output:
    sum(sides) for phi = 0.000294508
    sum(sides) for HRR_fu = -1.61416e-59
    sum(sides) for phiH = 0.00978244
    sum(sides) for phiHs = 4.7646e-06
    sum(sides) for phiHc = 0.00977228

faceSource patchOutlet output:
    sum(outlet) for phi = -8.46558e-07
    sum(outlet) for HRR_fu = -5.05828e-166
    sum(outlet) for phiH = -2.23802e-05
    sum(outlet) for phiHs = 5.70999e-06
    sum(outlet) for phiHc = -2.80902e-05

faceSource patchInlet output:
    sum(inlet) for phi = -0.000199997
    sum(inlet) for HRR_fu = 10006.2
    sum(inlet) for phiH = 944.837
    sum(inlet) for phiHs = 0.000197348
    sum(inlet) for phiHc = 944.837

Calculating averages

Time = 0.00878796

Cloud: reactingCloud1
    Current number of parcels       = 0
    Current mass in system          = 0
    Total number of parcels added   = 0
    Total mass introduced           = 0
    Mass transfer phase change      = 0
    min/max(T)      = 298.15, 298.197

diagonal:  Solving for rho, Initial residual = 0, Final residual = 0, No Iterations 0
DILUPBiCG:  Solving for Ux, Initial residual = 0.190804, Final residual = 4.43194e-10, No Iterations 1
DILUPBiCG:  Solving for Uy, Initial residual = 0.17212, Final residual = 5.33052e-10, No Iterations 1
DILUPBiCG:  Solving for O2, Initial residual = 0.0905194, Final residual = 1.88998e-15, No Iterations 2
max of O2 = 0.23301
min of O2 = 0.00476923
DILUPBiCG:  Solving for H2O, Initial residual = 0.00411343, Final residual = 6.14866e-10, No Iterations 1
max of H2O = 4.72987e-06
min of H2O = -1.05744e-06
DILUPBiCG:  Solving for CH4, Initial residual = 0.088194, Final residual = 1.72847e-15, No Iterations 2
max of CH4 = 0.979531
min of CH4 = 0
DILUPBiCG:  Solving for CO2, Initial residual = 0.00346449, Final residual = 5.06817e-10, No Iterations 1
max of CO2 = 5.77469e-06
min of CO2 = -1.29171e-06
max of N2 = 0.766992
min of N2 = 0
DILUPBiCG:  Solving for hs, Initial residual = 0.244452, Final residual = 3.16933e-14, No Iterations 2
GAMG:  Solving for p_rgh, Initial residual = 0.0632574, Final residual = 0.000247457, No Iterations 4
diagonal:  Solving for rho, Initial residual = 0, Final residual = 0, No Iterations 0
time step continuity errors : sum local = 1.38164e-08, global = -1.79793e-09, cumulative = 1.77787e-08
GAMG:  Solving for p_rgh, Initial residual = 0.00026657, Final residual = 4.889e-07, No Iterations 5
diagonal:  Solving for rho, Initial residual = 0, Final residual = 0, No Iterations 0
time step continuity errors : sum local = 2.64562e-11, global = 8.9008e-12, cumulative = 1.77876e-08
DILUPBiCG:  Solving for k, Initial residual = 0.911473, Final residual = 2.09969e-09, No Iterations 1
ExecutionTime = 0.15 s  ClockTime = 0 s

Courant Number mean: 5.00663e-05 max: 0.00184108
deltaT = 0.00289715
faceSource patchSides output:
    sum(sides) for phi = 0.000546479
    sum(sides) for HRR_fu = -1.3593e-55
    sum(sides) for phiH = 0.0181594
    sum(sides) for phiHs = 1.93467e-05
    sum(sides) for phiHc = 0.0181331

faceSource patchOutlet output:
    sum(outlet) for phi = -9.79892e-07
    sum(outlet) for HRR_fu = -4.52021e-158
    sum(outlet) for phiH = -1.69409e-05
    sum(outlet) for phiHs = 1.55736e-05
    sum(outlet) for phiHc = -3.25145e-05

faceSource patchInlet output:
    sum(inlet) for phi = -0.000199999
    sum(inlet) for HRR_fu = 10006.2
    sum(inlet) for phiH = 944.835
    sum(inlet) for phiHs = 0.000451238
    sum(inlet) for phiHc = 944.834

Calculating averages

Time = 0.0116851

Cloud: reactingCloud1
    Current number of parcels       = 0
    Current mass in system          = 0
    Total number of parcels added   = 0
    Total mass introduced           = 0
    Mass transfer phase change      = 0
    min/max(T)      = 298.15, 298.257

diagonal:  Solving for rho, Initial residual = 0, Final residual = 0, No Iterations 0
DILUPBiCG:  Solving for Ux, Initial residual = 0.151773, Final residual = 5.86309e-10, No Iterations 1
DILUPBiCG:  Solving for Uy, Initial residual = 0.113114, Final residual = 7.7845e-10, No Iterations 1
DILUPBiCG:  Solving for O2, Initial residual = 0.0757974, Final residual = 3.96297e-15, No Iterations 2
max of O2 = 0.23301
min of O2 = 0.0047661
DILUPBiCG:  Solving for H2O, Initial residual = 0.262117, Final residual = 8.43023e-15, No Iterations 2
max of H2O = 9.60578e-06
min of H2O = -1.05731e-06
DILUPBiCG:  Solving for CH4, Initial residual = 0.0731198, Final residual = 3.67182e-15, No Iterations 2
max of CH4 = 0.979544
min of CH4 = 0
DILUPBiCG:  Solving for CO2, Initial residual = 0.260348, Final residual = 7.92751e-15, No Iterations 2
max of CO2 = 1.17304e-05
min of CO2 = -1.29157e-06
max of N2 = 0.766992
min of N2 = 0
DILUPBiCG:  Solving for hs, Initial residual = 0.240049, Final residual = 1.05112e-14, No Iterations 2
GAMG:  Solving for p_rgh, Initial residual = 0.0672073, Final residual = 0.000257916, No Iterations 4
diagonal:  Solving for rho, Initial residual = 0, Final residual = 0, No Iterations 0
time step continuity errors : sum local = 1.76449e-08, global = -5.35942e-09, cumulative = 1.24281e-08
GAMG:  Solving for p_rgh, Initial residual = 0.000418662, Final residual = 8.26466e-07, No Iterations 5
diagonal:  Solving for rho, Initial residual = 0, Final residual = 0, No Iterations 0
time step continuity errors : sum local = 3.50624e-11, global = 8.95743e-12, cumulative = 1.24371e-08
DILUPBiCG:  Solving for k, Initial residual = 0.898089, Final residual = 3.53506e-09, No Iterations 1
ExecutionTime = 0.17 s  ClockTime = 0 s

Courant Number mean: 6.64967e-05 max: 0.00220374
deltaT = 0.00342391
faceSource patchSides output:
    sum(sides) for phi = 0.000718412
    sum(sides) for HRR_fu = -6.57445e-53
    sum(sides) for phiH = 0.02388
    sum(sides) for phiHs = 4.06611e-05
    sum(sides) for phiHc = 0.0238381

faceSource patchOutlet output:
    sum(outlet) for phi = -1.09717e-06
    sum(outlet) for HRR_fu = -1.21727e-151
    sum(outlet) for phiH = 3.75532e-06
    sum(outlet) for phiHs = 4.01613e-05
    sum(outlet) for phiHc = -3.6406e-05

faceSource patchInlet output:
    sum(inlet) for phi = -0.000199999
    sum(inlet) for HRR_fu = 10006.2
    sum(inlet) for phiH = 944.827
    sum(inlet) for phiHs = 0.000903385
    sum(inlet) for phiHc = 944.826

Calculating averages

Time = 0.015109

Cloud: reactingCloud1
    Current number of parcels       = 0
    Current mass in system          = 0
    Total number of parcels added   = 0
    Total mass introduced           = 0
    Mass transfer phase change      = 0
    min/max(T)      = 298.15, 298.363

diagonal:  Solving for rho, Initial residual = 0, Final residual = 0, No Iterations 0
DILUPBiCG:  Solving for Ux, Initial residual = 0.0991238, Final residual = 1.07019e-09, No Iterations 1
DILUPBiCG:  Solving for Uy, Initial residual = 0.055643, Final residual = 1.92052e-09, No Iterations 1
DILUPBiCG:  Solving for O2, Initial residual = 0.0663288, Final residual = 8.58044e-15, No Iterations 2
max of O2 = 0.23301
min of O2 = 0.00476235
DILUPBiCG:  Solving for H2O, Initial residual = 0.129747, Final residual = 1.27032e-14, No Iterations 2
max of H2O = 1.75529e-05
min of H2O = -1.05712e-06
DILUPBiCG:  Solving for CH4, Initial residual = 0.0632523, Final residual = 8.25731e-15, No Iterations 2
max of CH4 = 0.979559
min of CH4 = 0
DILUPBiCG:  Solving for CO2, Initial residual = 0.114942, Final residual = 1.0207e-14, No Iterations 2
max of CO2 = 2.14375e-05
min of CO2 = -1.29134e-06
max of N2 = 0.766992
min of N2 = 0
DILUPBiCG:  Solving for hs, Initial residual = 0.20919, Final residual = 2.03455e-14, No Iterations 2
GAMG:  Solving for p_rgh, Initial residual = 0.0753615, Final residual = 0.000458641, No Iterations 4
diagonal:  Solving for rho, Initial residual = 0, Final residual = 0, No Iterations 0
time step continuity errors : sum local = 2.67699e-08, global = -4.71243e-09, cumulative = 7.72467e-09
GAMG:  Solving for p_rgh, Initial residual = 0.0019028, Final residual = 5.73617e-07, No Iterations 7
diagonal:  Solving for rho, Initial residual = 0, Final residual = 0, No Iterations 0
time step continuity errors : sum local = 8.16897e-12, global = 1.63946e-12, cumulative = 7.72631e-09
DILUPBiCG:  Solving for k, Initial residual = 0.884654, Final residual = 5.78897e-09, No Iterations 1
ExecutionTime = 0.19 s  ClockTime = 0 s

Courant Number mean: 7.7717e-05 max: 0.00260444
deltaT = 0.00401937
faceSource patchSides output:
    sum(sides) for phi = 0.000729057
    sum(sides) for HRR_fu = -4.39961e-51
    sum(sides) for phiH = 0.0242233
    sum(sides) for phiHs = 3.85205e-05
    sum(sides) for phiHc = 0.0241914

faceSource patchOutlet output:
    sum(outlet) for phi = -1.20981e-06
    sum(outlet) for HRR_fu = -7.43727e-148
    sum(outlet) for phiH = 2.38777e-05
    sum(outlet) for phiHs = 6.40213e-05
    sum(outlet) for phiHc = -4.01436e-05

faceSource patchInlet output:
    sum(inlet) for phi = -0.000199999
    sum(inlet) for HRR_fu = 10006.2
    sum(inlet) for phiH = 944.819
    sum(inlet) for phiHs = 0.00164293
    sum(inlet) for phiHc = 944.817

Calculating averages

Time = 0.0191284

Cloud: reactingCloud1
    Current number of parcels       = 0
    Current mass in system          = 0
    Total number of parcels added   = 0
    Total mass introduced           = 0
    Mass transfer phase change      = 0
    min/max(T)      = 298.15, 298.537

diagonal:  Solving for rho, Initial residual = 0, Final residual = 0, No Iterations 0
DILUPBiCG:  Solving for Ux, Initial residual = 0.0460142, Final residual = 2.20903e-09, No Iterations 1
DILUPBiCG:  Solving for Uy, Initial residual = 0.0815608, Final residual = 3.40757e-09, No Iterations 1
DILUPBiCG:  Solving for O2, Initial residual = 0.0599711, Final residual = 1.9563e-14, No Iterations 2
max of O2 = 0.23301
min of O2 = 0.00475783
DILUPBiCG:  Solving for H2O, Initial residual = 0.0463695, Final residual = 1.31686e-14, No Iterations 2
max of H2O = 2.99003e-05
min of H2O = -1.05787e-06
DILUPBiCG:  Solving for CH4, Initial residual = 0.0564476, Final residual = 1.89557e-14, No Iterations 2
max of CH4 = 0.979576
min of CH4 = 0
DILUPBiCG:  Solving for CO2, Initial residual = 0.039123, Final residual = 1.13543e-14, No Iterations 2
max of CO2 = 3.65194e-05
min of CO2 = -1.29224e-06
max of N2 = 0.766992
min of N2 = 0
DILUPBiCG:  Solving for hs, Initial residual = 0.164978, Final residual = 4.26623e-14, No Iterations 2
GAMG:  Solving for p_rgh, Initial residual = 0.181837, Final residual = 0.00148045, No Iterations 4
diagonal:  Solving for rho, Initial residual = 0, Final residual = 0, No Iterations 0
time step continuity errors : sum local = 2.71589e-08, global = -8.40505e-09, cumulative = -6.78736e-10
GAMG:  Solving for p_rgh, Initial residual = 0.000911645, Final residual = 4.30824e-07, No Iterations 7
diagonal:  Solving for rho, Initial residual = 0, Final residual = 0, No Iterations 0
time step continuity errors : sum local = 1.38065e-11, global = 2.98013e-12, cumulative = -6.75756e-10
DILUPBiCG:  Solving for k, Initial residual = 0.871246, Final residual = 1.88767e-15, No Iterations 2
ExecutionTime = 0.21 s  ClockTime = 0 s

Courant Number mean: 8.8303e-05 max: 0.00305741
deltaT = 0.00475978
faceSource patchSides output:
    sum(sides) for phi = 0.000630654
    sum(sides) for HRR_fu = -1.02682e-49
    sum(sides) for phiH = 0.0209349
    sum(sides) for phiHs = 1.69636e-05
    sum(sides) for phiHc = 0.0209262

faceSource patchOutlet output:
    sum(outlet) for phi = -1.49156e-06
    sum(outlet) for HRR_fu = -4.59286e-146
    sum(outlet) for phiH = -2.19546e-06
    sum(outlet) for phiHs = 4.72971e-05
    sum(outlet) for phiHc = -4.94926e-05

faceSource patchInlet output:
    sum(inlet) for phi = -0.0002
    sum(inlet) for HRR_fu = 10006.3
    sum(inlet) for phiH = 944.811
    sum(inlet) for phiHs = 0.00279448
    sum(inlet) for phiHc = 944.808

Calculating averages

Time = 0.0238882

Cloud: reactingCloud1
    Current number of parcels       = 0
    Current mass in system          = 0
    Total number of parcels added   = 0
    Total mass introduced           = 0
    Mass transfer phase change      = 0
    min/max(T)      = 298.15, 298.808

diagonal:  Solving for rho, Initial residual = 0, Final residual = 0, No Iterations 0
DILUPBiCG:  Solving for Ux, Initial residual = 0.0639572, Final residual = 4.90201e-09, No Iterations 1
DILUPBiCG:  Solving for Uy, Initial residual = 0.0605849, Final residual = 5.98758e-09, No Iterations 1
DILUPBiCG:  Solving for O2, Initial residual = 0.056251, Final residual = 5.13207e-14, No Iterations 2
max of O2 = 0.23301
min of O2 = 0.00475231
DILUPBiCG:  Solving for H2O, Initial residual = 0.0197211, Final residual = 1.71919e-14, No Iterations 2
max of H2O = 4.86956e-05
min of H2O = -1.05801e-06
DILUPBiCG:  Solving for CH4, Initial residual = 0.0521848, Final residual = 4.75124e-14, No Iterations 2
max of CH4 = 0.979597
min of CH4 = 0
DILUPBiCG:  Solving for CO2, Initial residual = 0.0166425, Final residual = 1.45007e-14, No Iterations 2
max of CO2 = 5.94771e-05
min of CO2 = -1.29232e-06
max of N2 = 0.766992
min of N2 = 0
DILUPBiCG:  Solving for hs, Initial residual = 0.129365, Final residual = 1.0386e-13, No Iterations 2
GAMG:  Solving for p_rgh, Initial residual = 0.0820221, Final residual = 0.000451112, No Iterations 4
diagonal:  Solving for rho, Initial residual = 0, Final residual = 0, No Iterations 0
time step continuity errors : sum local = 1.85342e-08, global = 6.07821e-09, cumulative = 5.40246e-09
GAMG:  Solving for p_rgh, Initial residual = 0.000731861, Final residual = 4.15851e-07, No Iterations 7
diagonal:  Solving for rho, Initial residual = 0, Final residual = 0, No Iterations 0
time step continuity errors : sum local = 1.16934e-11, global = -4.01357e-12, cumulative = 5.39844e-09
DILUPBiCG:  Solving for k, Initial residual = 0.857429, Final residual = 5.10769e-15, No Iterations 2
ExecutionTime = 0.24 s  ClockTime = 0 s

Courant Number mean: 0.000109811 max: 0.00362062
deltaT = 0.00568103
faceSource patchSides output:
    sum(sides) for phi = 0.000562865
    sum(sides) for HRR_fu = -2.21513e-48
    sum(sides) for phiH = 0.0186726
    sum(sides) for phiHs = -1.20038e-07
    sum(sides) for phiHc = 0.0186768

faceSource patchOutlet output:
    sum(outlet) for phi = -2.03501e-06
    sum(outlet) for HRR_fu = -3.89015e-144
    sum(outlet) for phiH = -7.33698e-05
    sum(outlet) for phiHs = -5.84465e-06
    sum(outlet) for phiHc = -6.75252e-05

faceSource patchInlet output:
    sum(inlet) for phi = -0.0002
    sum(inlet) for HRR_fu = 10006.3
    sum(inlet) for phiH = 944.801
    sum(inlet) for phiHs = 0.00455047
    sum(inlet) for phiHc = 944.796

Calculating averages

Time = 0.0295692

Cloud: reactingCloud1
    Current number of parcels       = 0
    Current mass in system          = 0
    Total number of parcels added   = 0
    Total mass introduced           = 0
    Mass transfer phase change      = 0
    min/max(T)      = 298.15, 299.221

diagonal:  Solving for rho, Initial residual = 0, Final residual = 0, No Iterations 0
DILUPBiCG:  Solving for Ux, Initial residual = 0.071893, Final residual = 1.09658e-08, No Iterations 1
DILUPBiCG:  Solving for Uy, Initial residual = 0.0739224, Final residual = 1.11912e-08, No Iterations 1
DILUPBiCG:  Solving for O2, Initial residual = 0.0541774, Final residual = 1.44481e-13, No Iterations 2
max of O2 = 0.23301
min of O2 = 0.00474553
DILUPBiCG:  Solving for H2O, Initial residual = 0.114517, Final residual = 3.51414e-13, No Iterations 2
max of H2O = 7.6988e-05
min of H2O = -1.05796e-06
DILUPBiCG:  Solving for CH4, Initial residual = 0.0494605, Final residual = 1.29909e-13, No Iterations 2
max of CH4 = 0.979621
min of CH4 = 0
DILUPBiCG:  Solving for CO2, Initial residual = 0.115387, Final residual = 3.56231e-13, No Iterations 2
max of CO2 = 9.40352e-05
min of CO2 = -1.29226e-06
max of N2 = 0.766992
min of N2 = 0
DILUPBiCG:  Solving for hs, Initial residual = 0.114763, Final residual = 2.80961e-13, No Iterations 2
GAMG:  Solving for p_rgh, Initial residual = 0.107178, Final residual = 0.000366311, No Iterations 4
diagonal:  Solving for rho, Initial residual = 0, Final residual = 0, No Iterations 0
time step continuity errors : sum local = 1.2727e-08, global = 5.05438e-09, cumulative = 1.04528e-08
GAMG:  Solving for p_rgh, Initial residual = 0.000303129, Final residual = 3.72522e-07, No Iterations 6
diagonal:  Solving for rho, Initial residual = 0, Final residual = 0, No Iterations 0
time step continuity errors : sum local = 1.55587e-11, global = 4.11614e-12, cumulative = 1.04569e-08
DILUPBiCG:  Solving for k, Initial residual = 0.844734, Final residual = 1.67277e-14, No Iterations 2
ExecutionTime = 0.26 s  ClockTime = 0 s

Courant Number mean: 0.000149704 max: 0.00432139
deltaT = 0.00655503
faceSource patchSides output:
    sum(sides) for phi = 0.000631682
    sum(sides) for HRR_fu = -9.50333e-47
    sum(sides) for phiH = 0.0209574
    sum(sides) for phiHs = -4.36135e-06
    sum(sides) for phiHc = 0.0209603

faceSource patchOutlet output:
    sum(outlet) for phi = -2.57341e-06
    sum(outlet) for HRR_fu = -1.51136e-139
    sum(outlet) for phiH = -0.000115188
    sum(outlet) for phiHs = -2.97981e-05
    sum(outlet) for phiHc = -8.53902e-05

faceSource patchInlet output:
    sum(inlet) for phi = -0.0002
    sum(inlet) for HRR_fu = 10006.3
    sum(inlet) for phiH = 944.785
    sum(inlet) for phiHs = 0.00719601
    sum(inlet) for phiHc = 944.778

Calculating averages

Time = 0.0361242

Cloud: reactingCloud1
    Current number of parcels       = 0
    Current mass in system          = 0
    Total number of parcels added   = 0
    Total mass introduced           = 0
    Mass transfer phase change      = 0
    min/max(T)      = 298.15, 299.841

diagonal:  Solving for rho, Initial residual = 0, Final residual = 0, No Iterations 0
DILUPBiCG:  Solving for Ux, Initial residual = 0.0646363, Final residual = 1.59726e-08, No Iterations 1
DILUPBiCG:  Solving for Uy, Initial residual = 0.0803804, Final residual = 1.91859e-08, No Iterations 1
DILUPBiCG:  Solving for O2, Initial residual = 0.0512473, Final residual = 3.4349e-13, No Iterations 2
max of O2 = 0.23301
min of O2 = 0.00473741
DILUPBiCG:  Solving for H2O, Initial residual = 0.107195, Final residual = 7.85262e-13, No Iterations 2
max of H2O = 0.000117648
min of H2O = -1.05793e-06
DILUPBiCG:  Solving for CH4, Initial residual = 0.0459441, Final residual = 3.1404e-13, No Iterations 2
max of CH4 = 0.979649
min of CH4 = 0
DILUPBiCG:  Solving for CO2, Initial residual = 0.107101, Final residual = 7.63834e-13, No Iterations 2
max of CO2 = 0.000143699
min of CO2 = -1.29223e-06
max of N2 = 0.766992
min of N2 = 0
DILUPBiCG:  Solving for hs, Initial residual = 0.105389, Final residual = 6.74568e-13, No Iterations 2
GAMG:  Solving for p_rgh, Initial residual = 0.0377652, Final residual = 0.000171682, No Iterations 5
diagonal:  Solving for rho, Initial residual = 0, Final residual = 0, No Iterations 0
time step continuity errors : sum local = 9.56079e-09, global = -2.75654e-09, cumulative = 7.7004e-09
GAMG:  Solving for p_rgh, Initial residual = 0.000106755, Final residual = 6.69987e-07, No Iterations 5
diagonal:  Solving for rho, Initial residual = 0, Final residual = 0, No Iterations 0
time step continuity errors : sum local = 6.15447e-11, global = 1.81796e-11, cumulative = 7.71858e-09
DILUPBiCG:  Solving for k, Initial residual = 0.826957, Final residual = 4.66285e-14, No Iterations 2
ExecutionTime = 0.29 s  ClockTime = 0 s

Courant Number mean: 0.000199662 max: 0.00498623
deltaT = 0.00780361
faceSource patchSides output:
    sum(sides) for phi = 0.000786078
    sum(sides) for HRR_fu = -6.75924e-45
    sum(sides) for phiH = 0.0260887
    sum(sides) for phiHs = 1.5272e-06
    sum(sides) for phiHc = 0.0260834

faceSource patchOutlet output:
    sum(outlet) for phi = -2.78326e-06
    sum(outlet) for HRR_fu = -8.24383e-135
    sum(outlet) for phiH = -9.54633e-05
    sum(outlet) for phiHs = -3.11003e-06
    sum(outlet) for phiHc = -9.23532e-05

faceSource patchInlet output:
    sum(inlet) for phi = -0.0002
    sum(inlet) for HRR_fu = 10006.3
    sum(inlet) for phiH = 944.767
    sum(inlet) for phiHs = 0.0109986
    sum(inlet) for phiHc = 944.756

Calculating averages

Time = 0.0439278

Cloud: reactingCloud1
    Current number of parcels       = 0
    Current mass in system          = 0
    Total number of parcels added   = 0
    Total mass introduced           = 0
    Mass transfer phase change      = 0
    min/max(T)      = 298.15, 300.73

diagonal:  Solving for rho, Initial residual = 0, Final residual = 0, No Iterations 0
DILUPBiCG:  Solving for Ux, Initial residual = 0.0903809, Final residual = 3.03899e-08, No Iterations 1
DILUPBiCG:  Solving for Uy, Initial residual = 0.0606382, Final residual = 3.37234e-08, No Iterations 1
DILUPBiCG:  Solving for O2, Initial residual = 0.0507694, Final residual = 5.59666e-13, No Iterations 2
max of O2 = 0.23301
min of O2 = 0.00472735
DILUPBiCG:  Solving for H2O, Initial residual = 0.0911088, Final residual = 8.96846e-13, No Iterations 2
max of H2O = 0.000176942
min of H2O = -1.05789e-06
DILUPBiCG:  Solving for CH4, Initial residual = 0.0446697, Final residual = 4.91313e-13, No Iterations 2
max of CH4 = 0.979683
min of CH4 = 0
DILUPBiCG:  Solving for CO2, Initial residual = 0.0878977, Final residual = 8.58949e-13, No Iterations 2
max of CO2 = 0.000216125
min of CO2 = -1.29218e-06
max of N2 = 0.766992
min of N2 = 0
DILUPBiCG:  Solving for hs, Initial residual = 0.0970158, Final residual = 1.01905e-12, No Iterations 2
GAMG:  Solving for p_rgh, Initial residual = 0.0135983, Final residual = 5.39372e-05, No Iterations 5
diagonal:  Solving for rho, Initial residual = 0, Final residual = 0, No Iterations 0
time step continuity errors : sum local = 6.88691e-09, global = 1.55473e-09, cumulative = 9.27331e-09
GAMG:  Solving for p_rgh, Initial residual = 7.79923e-05, Final residual = 5.55245e-07, No Iterations 5
diagonal:  Solving for rho, Initial residual = 0, Final residual = 0, No Iterations 0
time step continuity errors : sum local = 5.32303e-11, global = -1.37827e-11, cumulative = 9.25953e-09
DILUPBiCG:  Solving for k, Initial residual = 0.81312, Final residual = 1.40361e-13, No Iterations 2
ExecutionTime = 0.31 s  ClockTime = 0 s

Courant Number mean: 0.000268607 max: 0.00593601
deltaT = 0.00918072
faceSource patchSides output:
    sum(sides) for phi = 0.000917446
    sum(sides) for HRR_fu = -6.92599e-43
    sum(sides) for phiH = 0.0304549
    sum(sides) for phiHs = 1.07738e-05
    sum(sides) for phiHc = 0.0304424

faceSource patchOutlet output:
    sum(outlet) for phi = -3.11179e-06
    sum(outlet) for HRR_fu = -1.68077e-130
    sum(outlet) for phiH = -8.20931e-05
    sum(outlet) for phiHs = 2.11615e-05
    sum(outlet) for phiHc = -0.000103255

faceSource patchInlet output:
    sum(inlet) for phi = -0.0002
    sum(inlet) for HRR_fu = 10006.3
    sum(inlet) for phiH = 944.747
    sum(inlet) for phiHs = 0.0165454
    sum(inlet) for phiHc = 944.73

Calculating averages

Time = 0.0531086

Cloud: reactingCloud1
    Current number of parcels       = 0
    Current mass in system          = 0
    Total number of parcels added   = 0
    Total mass introduced           = 0
    Mass transfer phase change      = 0
    min/max(T)      = 298.15, 302.023

diagonal:  Solving for rho, Initial residual = 0, Final residual = 0, No Iterations 0
DILUPBiCG:  Solving for Ux, Initial residual = 0.0721405, Final residual = 5.27464e-08, No Iterations 1
DILUPBiCG:  Solving for Uy, Initial residual = 0.0555073, Final residual = 5.72734e-08, No Iterations 1
DILUPBiCG:  Solving for O2, Initial residual = 0.0501562, Final residual = 1.76666e-12, No Iterations 2
max of O2 = 0.23301
min of O2 = 0.00471493
DILUPBiCG:  Solving for H2O, Initial residual = 0.0625956, Final residual = 1.86859e-12, No Iterations 2
max of H2O = 0.000261783
min of H2O = -1.05795e-06
DILUPBiCG:  Solving for CH4, Initial residual = 0.0432414, Final residual = 1.35341e-12, No Iterations 2
max of CH4 = 0.979722
min of CH4 = 0
DILUPBiCG:  Solving for CO2, Initial residual = 0.0579529, Final residual = 1.73898e-12, No Iterations 2
max of CO2 = 0.000319756
min of CO2 = -1.29231e-06
max of N2 = 0.766992
min of N2 = 0
DILUPBiCG:  Solving for hs, Initial residual = 0.0917051, Final residual = 2.86438e-12, No Iterations 2
GAMG:  Solving for p_rgh, Initial residual = 0.0173214, Final residual = 0.000134906, No Iterations 4
diagonal:  Solving for rho, Initial residual = 0, Final residual = 0, No Iterations 0
time step continuity errors : sum local = 1.77564e-08, global = -8.41571e-09, cumulative = 8.4382e-10
GAMG:  Solving for p_rgh, Initial residual = 0.000209456, Final residual = 4.77345e-07, No Iterations 6
diagonal:  Solving for rho, Initial residual = 0, Final residual = 0, No Iterations 0
time step continuity errors : sum local = 4.32573e-11, global = -1.34599e-11, cumulative = 8.3036e-10
DILUPBiCG:  Solving for k, Initial residual = 0.794033, Final residual = 6.16284e-13, No Iterations 2
ExecutionTime = 0.33 s  ClockTime = 0 s

Courant Number mean: 0.000353349 max: 0.00698358
deltaT = 0.0104922
faceSource patchSides output:
    sum(sides) for phi = 0.00101333
    sum(sides) for HRR_fu = -5.44814e-41
    sum(sides) for phiH = 0.0336381
    sum(sides) for phiHs = 1.49535e-05
    sum(sides) for phiHc = 0.0336241

faceSource patchOutlet output:
    sum(outlet) for phi = -3.7102e-06
    sum(outlet) for HRR_fu = -1.51457e-126
    sum(outlet) for phiH = -0.000107028
    sum(outlet) for phiHs = 1.60823e-05
    sum(outlet) for phiHc = -0.000123111

faceSource patchInlet output:
    sum(inlet) for phi = -0.0002
    sum(inlet) for HRR_fu = 10006.3
    sum(inlet) for phiH = 944.726
    sum(inlet) for phiHs = 0.0244854
    sum(inlet) for phiHc = 944.702

Calculating averages

Time = 0.0636008

Cloud: reactingCloud1
    Current number of parcels       = 0
    Current mass in system          = 0
    Total number of parcels added   = 0
    Total mass introduced           = 0
    Mass transfer phase change      = 0
    min/max(T)      = 298.15, 303.868

diagonal:  Solving for rho, Initial residual = 0, Final residual = 0, No Iterations 0
DILUPBiCG:  Solving for Ux, Initial residual = 0.0543219, Final residual = 8.38103e-08, No Iterations 1
DILUPBiCG:  Solving for Uy, Initial residual = 0.0605776, Final residual = 9.80936e-08, No Iterations 1
DILUPBiCG:  Solving for O2, Initial residual = 0.0486647, Final residual = 5.37647e-12, No Iterations 2
max of O2 = 0.23301
min of O2 = 0.00469994
DILUPBiCG:  Solving for H2O, Initial residual = 0.0340953, Final residual = 2.93939e-12, No Iterations 2
max of H2O = 0.000378793
min of H2O = -1.05804e-06
DILUPBiCG:  Solving for CH4, Initial residual = 0.04107, Final residual = 3.30514e-12, No Iterations 2
max of CH4 = 0.979767
min of CH4 = 0
DILUPBiCG:  Solving for CO2, Initial residual = 0.0300885, Final residual = 2.58898e-12, No Iterations 2
max of CO2 = 0.000462678
min of CO2 = -1.29236e-06
max of N2 = 0.766992
min of N2 = 0
DILUPBiCG:  Solving for hs, Initial residual = 0.0860435, Final residual = 7.66732e-12, No Iterations 2
GAMG:  Solving for p_rgh, Initial residual = 0.00909807, Final residual = 9.04545e-05, No Iterations 3
diagonal:  Solving for rho, Initial residual = 0, Final residual = 0, No Iterations 0
time step continuity errors : sum local = 1.06912e-08, global = 2.26449e-09, cumulative = 3.09485e-09
GAMG:  Solving for p_rgh, Initial residual = 9.19116e-05, Final residual = 6.72734e-07, No Iterations 5
diagonal:  Solving for rho, Initial residual = 0, Final residual = 0, No Iterations 0
time step continuity errors : sum local = 8.39719e-11, global = -1.29869e-11, cumulative = 3.08186e-09
DILUPBiCG:  Solving for k, Initial residual = 0.767458, Final residual = 1.63927e-12, No Iterations 2
ExecutionTime = 0.35 s  ClockTime = 0 s

Courant Number mean: 0.000454439 max: 0.00874403
deltaT = 0.0123999
faceSource patchSides output:
    sum(sides) for phi = 0.00113061
    sum(sides) for HRR_fu = -2.94146e-39
    sum(sides) for phiH = 0.0375282
    sum(sides) for phiHs = 1.34442e-05
    sum(sides) for phiHc = 0.0375157

faceSource patchOutlet output:
    sum(outlet) for phi = -4.34033e-06
    sum(outlet) for HRR_fu = -9.25399e-123
    sum(outlet) for phiH = -0.000136937
    sum(outlet) for phiHs = 7.08229e-06
    sum(outlet) for phiHc = -0.000144019

faceSource patchInlet output:
    sum(inlet) for phi = -0.0002
    sum(inlet) for HRR_fu = 10006.3
    sum(inlet) for phiH = 944.705
    sum(inlet) for phiHs = 0.035441
    sum(inlet) for phiHc = 944.669

Calculating averages

Time = 0.0760007

Cloud: reactingCloud1
    Current number of parcels       = 0
    Current mass in system          = 0
    Total number of parcels added   = 0
    Total mass introduced           = 0
    Mass transfer phase change      = 0
    min/max(T)      = 298.15, 306.403

diagonal:  Solving for rho, Initial residual = 0, Final residual = 0, No Iterations 0
DILUPBiCG:  Solving for Ux, Initial residual = 0.0597429, Final residual = 4.79862e-12, No Iterations 2
DILUPBiCG:  Solving for Uy, Initial residual = 0.0652504, Final residual = 5.05711e-12, No Iterations 2
DILUPBiCG:  Solving for O2, Initial residual = 0.0493328, Final residual = 2.62768e-11, No Iterations 2
max of O2 = 0.23301
min of O2 = 0.00468118
DILUPBiCG:  Solving for H2O, Initial residual = 0.0661205, Final residual = 1.73714e-11, No Iterations 2
max of H2O = 0.000543626
min of H2O = -1.05802e-06
DILUPBiCG:  Solving for CH4, Initial residual = 0.0407951, Final residual = 9.72151e-12, No Iterations 2
max of CH4 = 0.97982
min of CH4 = 0
DILUPBiCG:  Solving for CO2, Initial residual = 0.0629562, Final residual = 1.66054e-11, No Iterations 2
max of CO2 = 0.000664016
min of CO2 = -1.29234e-06
max of N2 = 0.766992
min of N2 = 0
DILUPBiCG:  Solving for hs, Initial residual = 0.0839146, Final residual = 2.56976e-11, No Iterations 2
GAMG:  Solving for p_rgh, Initial residual = 0.0151532, Final residual = 0.000129655, No Iterations 4
diagonal:  Solving for rho, Initial residual = 0, Final residual = 0, No Iterations 0
time step continuity errors : sum local = 2.23975e-08, global = -5.23473e-10, cumulative = 2.55839e-09
GAMG:  Solving for p_rgh, Initial residual = 0.000169483, Final residual = 8.26381e-07, No Iterations 5
diagonal:  Solving for rho, Initial residual = 0, Final residual = 0, No Iterations 0
time step continuity errors : sum local = 1.49042e-10, global = 3.7643e-11, cumulative = 2.59603e-09
DILUPBiCG:  Solving for k, Initial residual = 0.745609, Final residual = 5.61204e-12, No Iterations 2
ExecutionTime = 0.38 s  ClockTime = 0 s

Courant Number mean: 0.000606261 max: 0.0114417
deltaT = 0.0137777
faceSource patchSides output:
    sum(sides) for phi = 0.00128065
    sum(sides) for HRR_fu = -2.05044e-37
    sum(sides) for phiH = 0.0425067
    sum(sides) for phiHs = 1.25292e-05
    sum(sides) for phiHc = 0.0424941

faceSource patchOutlet output:
    sum(outlet) for phi = -5.12514e-06
    sum(outlet) for HRR_fu = -1.95339e-118
    sum(outlet) for phiH = -0.000162692
    sum(outlet) for phiHs = 7.36838e-06
    sum(outlet) for phiHc = -0.000170061

faceSource patchInlet output:
    sum(inlet) for phi = -0.0002
    sum(inlet) for HRR_fu = 10006.3
    sum(inlet) for phiH = 944.681
    sum(inlet) for phiHs = 0.0508849
    sum(inlet) for phiHc = 944.63

Calculating averages

Time = 0.0897784

Cloud: reactingCloud1
    Current number of parcels       = 0
    Current mass in system          = 0
    Total number of parcels added   = 0
    Total mass introduced           = 0
    Mass transfer phase change      = 0
    min/max(T)      = 298.15, 309.959

diagonal:  Solving for rho, Initial residual = 0, Final residual = 0, No Iterations 0
DILUPBiCG:  Solving for Ux, Initial residual = 0.0605622, Final residual = 1.01327e-11, No Iterations 2
DILUPBiCG:  Solving for Uy, Initial residual = 0.0602789, Final residual = 1.15076e-11, No Iterations 2
DILUPBiCG:  Solving for O2, Initial residual = 0.0474194, Final residual = 1.16629e-10, No Iterations 2
max of O2 = 0.23301
min of O2 = 0.00465895
DILUPBiCG:  Solving for H2O, Initial residual = 0.0737952, Final residual = 6.00512e-11, No Iterations 2
max of H2O = 0.000761298
min of H2O = -1.05799e-06
DILUPBiCG:  Solving for CH4, Initial residual = 0.0383981, Final residual = 2.10185e-11, No Iterations 2
max of CH4 = 0.979879
min of CH4 = 0
DILUPBiCG:  Solving for CO2, Initial residual = 0.0722391, Final residual = 5.91251e-11, No Iterations 2
max of CO2 = 0.000929894
min of CO2 = -1.2923e-06
max of N2 = 0.766992
min of N2 = 0
DILUPBiCG:  Solving for hs, Initial residual = 0.0779616, Final residual = 6.88409e-11, No Iterations 2
GAMG:  Solving for p_rgh, Initial residual = 0.0102534, Final residual = 5.54859e-05, No Iterations 4
diagonal:  Solving for rho, Initial residual = 0, Final residual = 0, No Iterations 0
time step continuity errors : sum local = 1.23483e-08, global = 5.13518e-10, cumulative = 3.10955e-09
GAMG:  Solving for p_rgh, Initial residual = 9.30907e-05, Final residual = 5.0856e-07, No Iterations 5
diagonal:  Solving for rho, Initial residual = 0, Final residual = 0, No Iterations 0
time step continuity errors : sum local = 1.14398e-10, global = 1.35881e-11, cumulative = 3.12314e-09
DILUPBiCG:  Solving for k, Initial residual = 0.708419, Final residual = 1.48946e-11, No Iterations 2
ExecutionTime = 0.4 s  ClockTime = 0 s

Courant Number mean: 0.000760899 max: 0.0140273
deltaT = 0.0157459
faceSource patchSides output:
    sum(sides) for phi = 0.00144888
    sum(sides) for HRR_fu = -9.50999e-36
    sum(sides) for phiH = 0.0480909
    sum(sides) for phiHs = 1.46672e-05
    sum(sides) for phiHc = 0.0480762

faceSource patchOutlet output:
    sum(outlet) for phi = -5.66908e-06
    sum(outlet) for HRR_fu = -6.44922e-115
    sum(outlet) for phiH = -0.000179034
    sum(outlet) for phiHs = 9.07574e-06
    sum(outlet) for phiHc = -0.00018811

faceSource patchInlet output:
    sum(inlet) for phi = -0.0002
    sum(inlet) for HRR_fu = 10006.3
    sum(inlet) for phiH = 944.658
    sum(inlet) for phiHs = 0.0712869
    sum(inlet) for phiHc = 944.586

Calculating averages

Time = 0.105524

Cloud: reactingCloud1
    Current number of parcels       = 0
    Current mass in system          = 0
    Total number of parcels added   = 0
    Total mass introduced           = 0
    Mass transfer phase change      = 0
    min/max(T)      = 298.15, 314.629

diagonal:  Solving for rho, Initial residual = 0, Final residual = 0, No Iterations 0
DILUPBiCG:  Solving for Ux, Initial residual = 0.0621676, Final residual = 2.61136e-11, No Iterations 2
DILUPBiCG:  Solving for Uy, Initial residual = 0.062685, Final residual = 3.27949e-11, No Iterations 2
DILUPBiCG:  Solving for O2, Initial residual = 0.0474015, Final residual = 1.19353e-10, No Iterations 2
max of O2 = 0.23301
min of O2 = 0.00463177
DILUPBiCG:  Solving for H2O, Initial residual = 0.0534644, Final residual = 1.7958e-10, No Iterations 2
max of H2O = 0.00105288
min of H2O = -1.058e-06
DILUPBiCG:  Solving for CH4, Initial residual = 0.0377031, Final residual = 5.32771e-11, No Iterations 2
max of CH4 = 0.979948
min of CH4 = 0
DILUPBiCG:  Solving for CO2, Initial residual = 0.0500505, Final residual = 1.68319e-10, No Iterations 2
max of CO2 = 0.00128605
min of CO2 = -1.29234e-06
max of N2 = 0.766992
min of N2 = 0
DILUPBiCG:  Solving for hs, Initial residual = 0.075137, Final residual = 2.64235e-10, No Iterations 2
GAMG:  Solving for p_rgh, Initial residual = 0.0148579, Final residual = 0.000112883, No Iterations 4
diagonal:  Solving for rho, Initial residual = 0, Final residual = 0, No Iterations 0
time step continuity errors : sum local = 3.32114e-08, global = -4.62711e-09, cumulative = -1.50397e-09
GAMG:  Solving for p_rgh, Initial residual = 0.000229938, Final residual = 7.60714e-07, No Iterations 5
diagonal:  Solving for rho, Initial residual = 0, Final residual = 0, No Iterations 0
time step continuity errors : sum local = 2.11645e-10, global = 9.30951e-13, cumulative = -1.50304e-09
DILUPBiCG:  Solving for k, Initial residual = 0.676012, Final residual = 4.17863e-11, No Iterations 2
ExecutionTime = 0.42 s  ClockTime = 0 s

Courant Number mean: 0.000976978 max: 0.0176481
deltaT = 0.0157459
faceSource patchSides output:
    sum(sides) for phi = 0.00163002
    sum(sides) for HRR_fu = -4.93611e-34
    sum(sides) for phiH = 0.0541037
    sum(sides) for phiHs = 1.68309e-05
    sum(sides) for phiHc = 0.0540869

faceSource patchOutlet output:
    sum(outlet) for phi = -6.47928e-06
    sum(outlet) for HRR_fu = -4.7796e-111
    sum(outlet) for phiH = -0.000205984
    sum(outlet) for phiHs = 9.00971e-06
    sum(outlet) for phiHc = -0.000214994

faceSource patchInlet output:
    sum(inlet) for phi = -0.0002
    sum(inlet) for HRR_fu = 10006.3
    sum(inlet) for phiH = 944.634
    sum(inlet) for phiHs = 0.0986324
    sum(inlet) for phiHc = 944.535

Calculating averages

Time = 0.12127

Cloud: reactingCloud1
    Current number of parcels       = 0
    Current mass in system          = 0
    Total number of parcels added   = 0
    Total mass introduced           = 0
    Mass transfer phase change      = 0
    min/max(T)      = 298.15, 320.845

diagonal:  Solving for rho, Initial residual = 0, Final residual = 0, No Iterations 0
DILUPBiCG:  Solving for Ux, Initial residual = 0.0526037, Final residual = 2.88928e-11, No Iterations 2
DILUPBiCG:  Solving for Uy, Initial residual = 0.053176, Final residual = 4.2844e-11, No Iterations 2
DILUPBiCG:  Solving for O2, Initial residual = 0.0419785, Final residual = 1.22513e-10, No Iterations 2
max of O2 = 0.23301
min of O2 = 0.00460247
DILUPBiCG:  Solving for H2O, Initial residual = 0.0291013, Final residual = 9.70213e-10, No Iterations 2
max of H2O = 0.00139404
min of H2O = -1.05804e-06
DILUPBiCG:  Solving for CH4, Initial residual = 0.0327756, Final residual = 6.9502e-11, No Iterations 2
max of CH4 = 0.980017
min of CH4 = 0
DILUPBiCG:  Solving for CO2, Initial residual = 0.0259455, Final residual = 8.63676e-10, No Iterations 2
max of CO2 = 0.00170277
min of CO2 = -1.29236e-06
max of N2 = 0.766992
min of N2 = 0
DILUPBiCG:  Solving for hs, Initial residual = 0.0644599, Final residual = 2.26457e-09, No Iterations 2
GAMG:  Solving for p_rgh, Initial residual = 0.0121923, Final residual = 0.000117762, No Iterations 4
diagonal:  Solving for rho, Initial residual = 0, Final residual = 0, No Iterations 0
time step continuity errors : sum local = 3.30217e-08, global = 2.5743e-09, cumulative = 1.07126e-09
GAMG:  Solving for p_rgh, Initial residual = 0.000162003, Final residual = 8.16744e-07, No Iterations 5
diagonal:  Solving for rho, Initial residual = 0, Final residual = 0, No Iterations 0
time step continuity errors : sum local = 2.52244e-10, global = 2.93584e-11, cumulative = 1.10062e-09
DILUPBiCG:  Solving for k, Initial residual = 0.60994, Final residual = 6.2267e-11, No Iterations 2
ExecutionTime = 0.44 s  ClockTime = 0 s

Courant Number mean: 0.00109632 max: 0.0194186
deltaT = 0.0157459
faceSource patchSides output:
    sum(sides) for phi = 0.00182867
    sum(sides) for HRR_fu = -9.54727e-33
    sum(sides) for phiH = 0.0606973
    sum(sides) for phiHs = 1.89842e-05
    sum(sides) for phiHc = 0.0606784

faceSource patchOutlet output:
    sum(outlet) for phi = -6.48508e-06
    sum(outlet) for HRR_fu = -7.82396e-109
    sum(outlet) for phiH = -0.000206527
    sum(outlet) for phiHs = 8.65914e-06
    sum(outlet) for phiHc = -0.000215186

faceSource patchInlet output:
    sum(inlet) for phi = -0.0002
    sum(inlet) for HRR_fu = 10006.3
    sum(inlet) for phiH = 944.615
    sum(inlet) for phiHs = 0.130619
    sum(inlet) for phiHc = 944.484

Calculating averages

Time = 0.137016

Cloud: reactingCloud1
    Current number of parcels       = 0
    Current mass in system          = 0
    Total number of parcels added   = 0
    Total mass introduced           = 0
    Mass transfer phase change      = 0
    min/max(T)      = 298.15, 328.06

diagonal:  Solving for rho, Initial residual = 0, Final residual = 0, No Iterations 0
DILUPBiCG:  Solving for Ux, Initial residual = 0.0518374, Final residual = 3.84669e-11, No Iterations 2
DILUPBiCG:  Solving for Uy, Initial residual = 0.0530046, Final residual = 6.32609e-11, No Iterations 2
DILUPBiCG:  Solving for O2, Initial residual = 0.03789, Final residual = 1.42914e-10, No Iterations 2
max of O2 = 0.23301
min of O2 = 0.00457101
DILUPBiCG:  Solving for H2O, Initial residual = 0.0479564, Final residual = 5.62757e-10, No Iterations 2
max of H2O = 0.00178452
min of H2O = -1.05804e-06
DILUPBiCG:  Solving for CH4, Initial residual = 0.0291928, Final residual = 9.84763e-11, No Iterations 2
max of CH4 = 0.980088
min of CH4 = 0
DILUPBiCG:  Solving for CO2, Initial residual = 0.0462463, Final residual = 5.4261e-10, No Iterations 2
max of CO2 = 0.00217972
min of CO2 = -1.29236e-06
max of N2 = 0.766992
min of N2 = 0
DILUPBiCG:  Solving for hs, Initial residual = 0.0564079, Final residual = 6.93355e-10, No Iterations 2
GAMG:  Solving for p_rgh, Initial residual = 0.0149912, Final residual = 9.82149e-05, No Iterations 4
diagonal:  Solving for rho, Initial residual = 0, Final residual = 0, No Iterations 0
time step continuity errors : sum local = 3.06521e-08, global = 3.88992e-09, cumulative = 4.99054e-09
GAMG:  Solving for p_rgh, Initial residual = 0.000222378, Final residual = 6.14435e-07, No Iterations 5
diagonal:  Solving for rho, Initial residual = 0, Final residual = 0, No Iterations 0
time step continuity errors : sum local = 1.94676e-10, global = 2.30001e-11, cumulative = 5.01354e-09
DILUPBiCG:  Solving for k, Initial residual = 0.548549, Final residual = 8.25127e-11, No Iterations 2
ExecutionTime = 0.47 s  ClockTime = 0 s

Courant Number mean: 0.00121521 max: 0.0209822
deltaT = 0.0157459
faceSource patchSides output:
    sum(sides) for phi = 0.00202989
    sum(sides) for HRR_fu = -1.31951e-31
    sum(sides) for phiH = 0.0673758
    sum(sides) for phiHs = 2.04641e-05
    sum(sides) for phiHc = 0.0673552

faceSource patchOutlet output:
    sum(outlet) for phi = -6.48125e-06
    sum(outlet) for HRR_fu = -8.56909e-107
    sum(outlet) for phiH = -0.000206177
    sum(outlet) for phiHs = 8.88158e-06
    sum(outlet) for phiHc = -0.000215059

faceSource patchInlet output:
    sum(inlet) for phi = -0.0002
    sum(inlet) for HRR_fu = 10006.3
    sum(inlet) for phiH = 944.598
    sum(inlet) for phiHs = 0.167221
    sum(inlet) for phiHc = 944.431

Calculating averages

Time = 0.152762

Cloud: reactingCloud1
    Current number of parcels       = 0
    Current mass in system          = 0
    Total number of parcels added   = 0
    Total mass introduced           = 0
    Mass transfer phase change      = 0
    min/max(T)      = 298.15, 336.247

diagonal:  Solving for rho, Initial residual = 0, Final residual = 0, No Iterations 0
DILUPBiCG:  Solving for Ux, Initial residual = 0.0471574, Final residual = 4.10004e-11, No Iterations 2
DILUPBiCG:  Solving for Uy, Initial residual = 0.0477666, Final residual = 8.03772e-11, No Iterations 2
DILUPBiCG:  Solving for O2, Initial residual = 0.0346345, Final residual = 1.66771e-10, No Iterations 2
max of O2 = 0.23301
min of O2 = 0.00453735
DILUPBiCG:  Solving for H2O, Initial residual = 0.044075, Final residual = 4.67342e-10, No Iterations 2
max of H2O = 0.00222441
min of H2O = -1.05802e-06
DILUPBiCG:  Solving for CH4, Initial residual = 0.026415, Final residual = 1.0263e-09, No Iterations 2
max of CH4 = 0.980159
min of CH4 = 0
DILUPBiCG:  Solving for CO2, Initial residual = 0.0427967, Final residual = 4.53966e-10, No Iterations 2
max of CO2 = 0.00271703
min of CO2 = -1.29234e-06
max of N2 = 0.766992
min of N2 = 0
DILUPBiCG:  Solving for hs, Initial residual = 0.0501255, Final residual = 5.52015e-10, No Iterations 2
GAMG:  Solving for p_rgh, Initial residual = 0.0138705, Final residual = 8.42565e-05, No Iterations 4
diagonal:  Solving for rho, Initial residual = 0, Final residual = 0, No Iterations 0
time step continuity errors : sum local = 2.7083e-08, global = -5.48124e-09, cumulative = -4.67706e-10
GAMG:  Solving for p_rgh, Initial residual = 0.000229177, Final residual = 6.61879e-07, No Iterations 5
diagonal:  Solving for rho, Initial residual = 0, Final residual = 0, No Iterations 0
time step continuity errors : sum local = 2.10525e-10, global = 5.267e-12, cumulative = -4.62439e-10
DILUPBiCG:  Solving for k, Initial residual = 0.490387, Final residual = 1.06264e-10, No Iterations 2
ExecutionTime = 0.49 s  ClockTime = 0 s

Courant Number mean: 0.00133089 max: 0.0223632
deltaT = 0.0157459
faceSource patchSides output:
    sum(sides) for phi = 0.00222554
    sum(sides) for HRR_fu = -1.41284e-30
    sum(sides) for phiH = 0.0738707
    sum(sides) for phiHs = 2.35082e-05
    sum(sides) for phiHc = 0.0738471

faceSource patchOutlet output:
    sum(outlet) for phi = -6.4792e-06
    sum(outlet) for HRR_fu = -6.50421e-105
    sum(outlet) for phiH = -0.000205992
    sum(outlet) for phiHs = 8.9986e-06
    sum(outlet) for phiHc = -0.000214991

faceSource patchInlet output:
    sum(inlet) for phi = -0.0002
    sum(inlet) for HRR_fu = 10006.3
    sum(inlet) for phiH = 944.585
    sum(inlet) for phiHs = 0.208445
    sum(inlet) for phiHc = 944.377

Calculating averages

Time = 0.168508

Cloud: reactingCloud1
    Current number of parcels       = 0
    Current mass in system          = 0
    Total number of parcels added   = 0
    Total mass introduced           = 0
    Mass transfer phase change      = 0
    min/max(T)      = 298.15, 345.385

diagonal:  Solving for rho, Initial residual = 0, Final residual = 0, No Iterations 0
DILUPBiCG:  Solving for Ux, Initial residual = 0.0421595, Final residual = 4.26752e-11, No Iterations 2
DILUPBiCG:  Solving for Uy, Initial residual = 0.0427406, Final residual = 9.79616e-11, No Iterations 2
DILUPBiCG:  Solving for O2, Initial residual = 0.0319662, Final residual = 1.90264e-10, No Iterations 2
max of O2 = 0.23301
min of O2 = 0.00450141
DILUPBiCG:  Solving for H2O, Initial residual = 0.0321877, Final residual = 3.77192e-10, No Iterations 2
max of H2O = 0.00271406
min of H2O = -1.05805e-06
DILUPBiCG:  Solving for CH4, Initial residual = 0.0241876, Final residual = 1.36259e-10, No Iterations 2
max of CH4 = 0.980233
min of CH4 = 0
DILUPBiCG:  Solving for CO2, Initial residual = 0.0302293, Final residual = 3.54137e-10, No Iterations 2
max of CO2 = 0.00331512
min of CO2 = -1.29237e-06
max of N2 = 0.766992
min of N2 = 0
DILUPBiCG:  Solving for hs, Initial residual = 0.0451228, Final residual = 5.47279e-10, No Iterations 2
GAMG:  Solving for p_rgh, Initial residual = 0.0135205, Final residual = 8.56352e-05, No Iterations 4
diagonal:  Solving for rho, Initial residual = 0, Final residual = 0, No Iterations 0
time step continuity errors : sum local = 2.75787e-08, global = -5.44587e-09, cumulative = -5.9083e-09
GAMG:  Solving for p_rgh, Initial residual = 0.000242407, Final residual = 6.20841e-07, No Iterations 5
diagonal:  Solving for rho, Initial residual = 0, Final residual = 0, No Iterations 0
time step continuity errors : sum local = 1.99543e-10, global = -1.2134e-12, cumulative = -5.90952e-09
DILUPBiCG:  Solving for k, Initial residual = 0.424261, Final residual = 8.59574e-11, No Iterations 2
ExecutionTime = 0.51 s  ClockTime = 0 s

Courant Number mean: 0.00144439 max: 0.023581
deltaT = 0.0157459
faceSource patchSides output:
    sum(sides) for phi = 0.00241782
    sum(sides) for HRR_fu = -1.21754e-29
    sum(sides) for phiH = 0.080253
    sum(sides) for phiHs = 2.56309e-05
    sum(sides) for phiHc = 0.0802274

faceSource patchOutlet output:
    sum(outlet) for phi = -6.48141e-06
    sum(outlet) for HRR_fu = -3.50587e-103
    sum(outlet) for phiH = -0.000206202
    sum(outlet) for phiHs = 8.8622e-06
    sum(outlet) for phiHc = -0.000215064

faceSource patchInlet output:
    sum(inlet) for phi = -0.0002
    sum(inlet) for HRR_fu = 10006.3
    sum(inlet) for phiH = 944.576
    sum(inlet) for phiHs = 0.254327
    sum(inlet) for phiHc = 944.321

Calculating averages

Time = 0.184254

Cloud: reactingCloud1
    Current number of parcels       = 0
    Current mass in system          = 0
    Total number of parcels added   = 0
    Total mass introduced           = 0
    Mass transfer phase change      = 0
    min/max(T)      = 298.15, 355.455

diagonal:  Solving for rho, Initial residual = 0, Final residual = 0, No Iterations 0
DILUPBiCG:  Solving for Ux, Initial residual = 0.0383278, Final residual = 4.49279e-11, No Iterations 2
DILUPBiCG:  Solving for Uy, Initial residual = 0.0388586, Final residual = 1.16582e-10, No Iterations 2
DILUPBiCG:  Solving for O2, Initial residual = 0.0297255, Final residual = 2.11337e-10, No Iterations 2
max of O2 = 0.23301
min of O2 = 0.00446314
DILUPBiCG:  Solving for H2O, Initial residual = 0.0263306, Final residual = 3.5456e-10, No Iterations 2
max of H2O = 0.00325406
min of H2O = -1.05805e-06
DILUPBiCG:  Solving for CH4, Initial residual = 0.0223524, Final residual = 1.3978e-10, No Iterations 2
max of CH4 = 0.980307
min of CH4 = 0
DILUPBiCG:  Solving for CO2, Initial residual = 0.0314577, Final residual = 4.23418e-10, No Iterations 2
max of CO2 = 0.0039747
min of CO2 = -1.29237e-06
max of N2 = 0.766992
min of N2 = 0
DILUPBiCG:  Solving for hs, Initial residual = 0.0410331, Final residual = 5.72204e-10, No Iterations 2
GAMG:  Solving for p_rgh, Initial residual = 0.0130359, Final residual = 9.32967e-05, No Iterations 4
diagonal:  Solving for rho, Initial residual = 0, Final residual = 0, No Iterations 0
time step continuity errors : sum local = 3.0348e-08, global = -4.99397e-09, cumulative = -1.09035e-08
GAMG:  Solving for p_rgh, Initial residual = 0.000260629, Final residual = 6.41333e-07, No Iterations 5
diagonal:  Solving for rho, Initial residual = 0, Final residual = 0, No Iterations 0
time step continuity errors : sum local = 2.09159e-10, global = -2.62659e-12, cumulative = -1.09061e-08
DILUPBiCG:  Solving for k, Initial residual = 0.366058, Final residual = 4.9086e-11, No Iterations 2
ExecutionTime = 0.53 s  ClockTime = 1 s

Courant Number mean: 0.00155625 max: 0.0246566
deltaT = 0.0157459
faceSource patchSides output:
    sum(sides) for phi = 0.00260815
    sum(sides) for HRR_fu = -8.76065e-29
    sum(sides) for phiH = 0.0865701
    sum(sides) for phiHs = 2.72144e-05
    sum(sides) for phiHc = 0.0865429

faceSource patchOutlet output:
    sum(outlet) for phi = -6.48288e-06
    sum(outlet) for HRR_fu = -1.42804e-101
    sum(outlet) for phiH = -0.000206344
    sum(outlet) for phiHs = 8.76934e-06
    sum(outlet) for phiHc = -0.000215113

faceSource patchInlet output:
    sum(inlet) for phi = -0.0002
    sum(inlet) for HRR_fu = 10006.3
    sum(inlet) for phiH = 944.569
    sum(inlet) for phiHs = 0.304924
    sum(inlet) for phiHc = 944.264

Calculating averages

Time = 0.2

Cloud: reactingCloud1
    Current number of parcels       = 0
    Current mass in system          = 0
    Total number of parcels added   = 0
    Total mass introduced           = 0
    Mass transfer phase change      = 0
    min/max(T)      = 298.15, 366.442

diagonal:  Solving for rho, Initial residual = 0, Final residual = 0, No Iterations 0
DILUPBiCG:  Solving for Ux, Initial residual = 0.0352677, Final residual = 5.11423e-11, No Iterations 2
DILUPBiCG:  Solving for Uy, Initial residual = 0.0356829, Final residual = 1.36501e-10, No Iterations 2
DILUPBiCG:  Solving for O2, Initial residual = 0.0278066, Final residual = 2.28393e-10, No Iterations 2
max of O2 = 0.23301
min of O2 = 0.00442245
DILUPBiCG:  Solving for H2O, Initial residual = 0.0352417, Final residual = 5.50371e-10, No Iterations 2
max of H2O = 0.0038452
min of H2O = -1.05804e-06
DILUPBiCG:  Solving for CH4, Initial residual = 0.0208027, Final residual = 1.53504e-10, No Iterations 2
max of CH4 = 0.980384
min of CH4 = 0
DILUPBiCG:  Solving for CO2, Initial residual = 0.034672, Final residual = 5.41523e-10, No Iterations 2
max of CO2 = 0.00469676
min of CO2 = -1.29237e-06
max of N2 = 0.766992
min of N2 = 0
DILUPBiCG:  Solving for hs, Initial residual = 0.0376248, Final residual = 6.08137e-10, No Iterations 2
GAMG:  Solving for p_rgh, Initial residual = 0.0130984, Final residual = 9.49215e-05, No Iterations 4
diagonal:  Solving for rho, Initial residual = 0, Final residual = 0, No Iterations 0
time step continuity errors : sum local = 3.13003e-08, global = -5.0527e-09, cumulative = -1.59588e-08
GAMG:  Solving for p_rgh, Initial residual = 0.000272713, Final residual = 6.39213e-07, No Iterations 5
diagonal:  Solving for rho, Initial residual = 0, Final residual = 0, No Iterations 0
time step continuity errors : sum local = 2.11309e-10, global = -3.8434e-12, cumulative = -1.59627e-08
DILUPBiCG:  Solving for k, Initial residual = 0.31672, Final residual = 4.70666e-10, No Iterations 2
ExecutionTime = 0.56 s  ClockTime = 1 s

Courant Number mean: 0.00166666 max: 0.0256116
deltaT = 0.0181818
faceSource patchSides output:
    sum(sides) for phi = 0.00279669
    sum(sides) for HRR_fu = -5.42113e-28
    sum(sides) for phiH = 0.0928276
    sum(sides) for phiHs = 2.88807e-05
    sum(sides) for phiHc = 0.0927987

faceSource patchOutlet output:
    sum(outlet) for phi = -6.48343e-06
    sum(outlet) for HRR_fu = -4.61053e-100
    sum(outlet) for phiH = -0.000206399
    sum(outlet) for phiHs = 8.73189e-06
    sum(outlet) for phiHc = -0.000215131

faceSource patchInlet output:
    sum(inlet) for phi = -0.0002
    sum(inlet) for HRR_fu = 10006.3
    sum(inlet) for phiH = 944.566
    sum(inlet) for phiHs = 0.360316
    sum(inlet) for phiHc = 944.206

Calculating averages

Time = 0.218182

Cloud: reactingCloud1
    Current number of parcels       = 0
    Current mass in system          = 0
    Total number of parcels added   = 0
    Total mass introduced           = 0
    Mass transfer phase change      = 0
    min/max(T)      = 298.15, 378.33

diagonal:  Solving for rho, Initial residual = 0, Final residual = 0, No Iterations 0
DILUPBiCG:  Solving for Ux, Initial residual = 0.0375766, Final residual = 1.3095e-10, No Iterations 2
DILUPBiCG:  Solving for Uy, Initial residual = 0.0381614, Final residual = 3.34959e-10, No Iterations 2
DILUPBiCG:  Solving for O2, Initial residual = 0.03002, Final residual = 4.8468e-10, No Iterations 2
max of O2 = 0.23301
min of O2 = 0.00437283
DILUPBiCG:  Solving for H2O, Initial residual = 0.0275074, Final residual = 8.76859e-10, No Iterations 2
max of H2O = 0.00458243
min of H2O = -1.05805e-06
DILUPBiCG:  Solving for CH4, Initial residual = 0.022449, Final residual = 3.5262e-10, No Iterations 2
max of CH4 = 0.980475
min of CH4 = 0
DILUPBiCG:  Solving for CO2, Initial residual = 0.0319469, Final residual = 1.01851e-09, No Iterations 2
max of CO2 = 0.00559726
min of CO2 = -1.29237e-06
max of N2 = 0.766992
min of N2 = 0
DILUPBiCG:  Solving for hs, Initial residual = 0.039795, Final residual = 1.31617e-09, No Iterations 2
GAMG:  Solving for p_rgh, Initial residual = 0.0203606, Final residual = 0.000100399, No Iterations 5
diagonal:  Solving for rho, Initial residual = 0, Final residual = 0, No Iterations 0
time step continuity errors : sum local = 4.47147e-08, global = -8.0579e-09, cumulative = -2.40206e-08
GAMG:  Solving for p_rgh, Initial residual = 0.000506993, Final residual = 6.33781e-07, No Iterations 5
diagonal:  Solving for rho, Initial residual = 0, Final residual = 0, No Iterations 0
time step continuity errors : sum local = 2.47566e-10, global = -2.36414e-11, cumulative = -2.40442e-08
DILUPBiCG:  Solving for k, Initial residual = 0.305774, Final residual = 1.27538e-09, No Iterations 2
ExecutionTime = 0.58 s  ClockTime = 1 s

Courant Number mean: 0.00204553 max: 0.0305827
deltaT = 0.020202
faceSource patchSides output:
    sum(sides) for phi = 0.0029794
    sum(sides) for HRR_fu = -4.86227e-27
    sum(sides) for phiH = 0.0988921
    sum(sides) for phiHs = 3.05471e-05
    sum(sides) for phiHc = 0.0988615

faceSource patchOutlet output:
    sum(outlet) for phi = -7.48612e-06
    sum(outlet) for HRR_fu = -1.60661e-97
    sum(outlet) for phiH = -0.000239711
    sum(outlet) for phiHs = 8.69101e-06
    sum(outlet) for phiHc = -0.000248402

faceSource patchInlet output:
    sum(inlet) for phi = -0.0002
    sum(inlet) for HRR_fu = 10006.3
    sum(inlet) for phiH = 944.565
    sum(inlet) for phiHs = 0.429475
    sum(inlet) for phiHc = 944.136

Calculating averages

Time = 0.238384

Cloud: reactingCloud1
    Current number of parcels       = 0
    Current mass in system          = 0
    Total number of parcels added   = 0
    Total mass introduced           = 0
    Mass transfer phase change      = 0
    min/max(T)      = 298.15, 392.968

diagonal:  Solving for rho, Initial residual = 0, Final residual = 0, No Iterations 0
DILUPBiCG:  Solving for Ux, Initial residual = 0.0330285, Final residual = 2.81186e-10, No Iterations 2
DILUPBiCG:  Solving for Uy, Initial residual = 0.0331865, Final residual = 5.94775e-10, No Iterations 2
DILUPBiCG:  Solving for O2, Initial residual = 0.0310145, Final residual = 7.75272e-10, No Iterations 2
max of O2 = 0.23301
min of O2 = 0.00431415
DILUPBiCG:  Solving for H2O, Initial residual = 0.0302768, Final residual = 1.64208e-09, No Iterations 2
max of H2O = 0.00547447
min of H2O = -1.05805e-06
DILUPBiCG:  Solving for CH4, Initial residual = 0.0231221, Final residual = 6.03703e-10, No Iterations 2
max of CH4 = 0.98058
min of CH4 = 0
DILUPBiCG:  Solving for CO2, Initial residual = 0.0286594, Final residual = 1.55411e-09, No Iterations 2
max of CO2 = 0.00668685
min of CO2 = -1.29237e-06
max of N2 = 0.766992
min of N2 = 0
DILUPBiCG:  Solving for hs, Initial residual = 0.040373, Final residual = 2.27991e-09, No Iterations 2
GAMG:  Solving for p_rgh, Initial residual = 0.0235686, Final residual = 0.000110227, No Iterations 4
diagonal:  Solving for rho, Initial residual = 0, Final residual = 0, No Iterations 0
time step continuity errors : sum local = 5.36277e-08, global = -1.25935e-08, cumulative = -3.66377e-08
GAMG:  Solving for p_rgh, Initial residual = 0.000481036, Final residual = 7.18308e-07, No Iterations 5
diagonal:  Solving for rho, Initial residual = 0, Final residual = 0, No Iterations 0
time step continuity errors : sum local = 3.46953e-10, global = -2.70009e-11, cumulative = -3.66647e-08
DILUPBiCG:  Solving for k, Initial residual = 0.285929, Final residual = 9.00426e-10, No Iterations 2
ExecutionTime = 0.61 s  ClockTime = 1 s

Courant Number mean: 0.0024204 max: 0.0367286
deltaT = 0.023088
faceSource patchSides output:
    sum(sides) for phi = 0.00317732
    sum(sides) for HRR_fu = -4.73466e-26
    sum(sides) for phiH = 0.105461
    sum(sides) for phiHs = 3.23123e-05
    sum(sides) for phiHc = 0.105429

faceSource patchOutlet output:
    sum(outlet) for phi = -8.32894e-06
    sum(outlet) for HRR_fu = -5.67698e-95
    sum(outlet) for phiH = -0.000268235
    sum(outlet) for phiHs = 8.13343e-06
    sum(outlet) for phiHc = -0.000276368

faceSource patchInlet output:
    sum(inlet) for phi = -0.0002
    sum(inlet) for HRR_fu = 10006.3
    sum(inlet) for phiH = 944.57
    sum(inlet) for phiHs = 0.513248
    sum(inlet) for phiHc = 944.057

Calculating averages

Time = 0.261472

Cloud: reactingCloud1
    Current number of parcels       = 0
    Current mass in system          = 0
    Total number of parcels added   = 0
    Total mass introduced           = 0
    Mass transfer phase change      = 0
    min/max(T)      = 298.15, 410.409

diagonal:  Solving for rho, Initial residual = 0, Final residual = 0, No Iterations 0
DILUPBiCG:  Solving for Ux, Initial residual = 0.0350351, Final residual = 7.76349e-10, No Iterations 2
DILUPBiCG:  Solving for Uy, Initial residual = 0.0356744, Final residual = 1.39772e-09, No Iterations 2
DILUPBiCG:  Solving for O2, Initial residual = 0.0328688, Final residual = 1.52842e-09, No Iterations 2
max of O2 = 0.23301
min of O2 = 0.00424256
DILUPBiCG:  Solving for H2O, Initial residual = 0.0293874, Final residual = 3.24455e-09, No Iterations 2
max of H2O = 0.00659091
min of H2O = -1.05806e-06
DILUPBiCG:  Solving for CH4, Initial residual = 0.0244656, Final residual = 1.18767e-09, No Iterations 2
max of CH4 = 0.980703
min of CH4 = 0
DILUPBiCG:  Solving for CO2, Initial residual = 0.0275288, Final residual = 3.03877e-09, No Iterations 2
max of CO2 = 0.00805054
min of CO2 = -1.29238e-06
max of N2 = 0.766992
min of N2 = 0
DILUPBiCG:  Solving for hs, Initial residual = 0.0420024, Final residual = 4.86397e-09, No Iterations 2
GAMG:  Solving for p_rgh, Initial residual = 0.0311722, Final residual = 0.000200257, No Iterations 4
diagonal:  Solving for rho, Initial residual = 0, Final residual = 0, No Iterations 0
time step continuity errors : sum local = 1.28119e-07, global = -1.87416e-08, cumulative = -5.54063e-08
GAMG:  Solving for p_rgh, Initial residual = 0.000808645, Final residual = 4.55005e-07, No Iterations 6
diagonal:  Solving for rho, Initial residual = 0, Final residual = 0, No Iterations 0
time step continuity errors : sum local = 2.88046e-10, global = -2.40801e-11, cumulative = -5.54303e-08
DILUPBiCG:  Solving for k, Initial residual = 0.273085, Final residual = 1.8682e-09, No Iterations 2
ExecutionTime = 0.63 s  ClockTime = 1 s

Courant Number mean: 0.00295087 max: 0.0455914
deltaT = 0.0277056
faceSource patchSides output:
    sum(sides) for phi = 0.00339714
    sum(sides) for HRR_fu = -5.5623e-25
    sum(sides) for phiH = 0.112754
    sum(sides) for phiHs = 3.12667e-05
    sum(sides) for phiHc = 0.112723

faceSource patchOutlet output:
    sum(outlet) for phi = -9.52168e-06
    sum(outlet) for HRR_fu = -4.65407e-92
    sum(outlet) for phiH = -0.000307995
    sum(outlet) for phiHs = 7.95002e-06
    sum(outlet) for phiHc = -0.000315945

faceSource patchInlet output:
    sum(inlet) for phi = -0.0002
    sum(inlet) for HRR_fu = 10006.3
    sum(inlet) for phiH = 944.579
    sum(inlet) for phiHs = 0.617727
    sum(inlet) for phiHc = 943.962

Calculating averages

Time = 0.289177

Cloud: reactingCloud1
    Current number of parcels       = 0
    Current mass in system          = 0
    Total number of parcels added   = 0
    Total mass introduced           = 0
    Mass transfer phase change      = 0
    min/max(T)      = 298.15, 431.809

diagonal:  Solving for rho, Initial residual = 0, Final residual = 0, No Iterations 0
DILUPBiCG:  Solving for Ux, Initial residual = 0.0386244, Final residual = 2.76088e-09, No Iterations 2
DILUPBiCG:  Solving for Uy, Initial residual = 0.0392253, Final residual = 4.18721e-09, No Iterations 2
DILUPBiCG:  Solving for O2, Initial residual = 0.034876, Final residual = 3.40296e-09, No Iterations 2
max of O2 = 0.23301
min of O2 = 0.00415694
DILUPBiCG:  Solving for H2O, Initial residual = 0.0309768, Final residual = 8.58043e-09, No Iterations 2
max of H2O = 0.00788079
min of H2O = -1.05805e-06
DILUPBiCG:  Solving for CH4, Initial residual = 0.0271911, Final residual = 2.8524e-09, No Iterations 2
max of CH4 = 0.980859
min of CH4 = 0
DILUPBiCG:  Solving for CO2, Initial residual = 0.0291801, Final residual = 8.08318e-09, No Iterations 2
max of CO2 = 0.00962609
min of CO2 = -1.29237e-06
max of N2 = 0.766992
min of N2 = 0
DILUPBiCG:  Solving for hs, Initial residual = 0.0425522, Final residual = 3.35678e-12, No Iterations 3
GAMG:  Solving for p_rgh, Initial residual = 0.053488, Final residual = 0.000337059, No Iterations 5
diagonal:  Solving for rho, Initial residual = 0, Final residual = 0, No Iterations 0
time step continuity errors : sum local = 3.17568e-07, global = -5.85567e-08, cumulative = -1.13987e-07
GAMG:  Solving for p_rgh, Initial residual = 0.00408914, Final residual = 3.15318e-07, No Iterations 7
diagonal:  Solving for rho, Initial residual = 0, Final residual = 0, No Iterations 0
time step continuity errors : sum local = 1.48476e-10, global = -2.18419e-12, cumulative = -1.13989e-07
DILUPBiCG:  Solving for k, Initial residual = 0.266345, Final residual = 4.1055e-09, No Iterations 2
ExecutionTime = 0.65 s  ClockTime = 1 s

Courant Number mean: 0.00358965 max: 0.0569856
deltaT = 0.0277056
faceSource patchSides output:
    sum(sides) for phi = 0.00346444
    sum(sides) for HRR_fu = -8.97446e-24
    sum(sides) for phiH = 0.114987
    sum(sides) for phiHs = 3.13803e-05
    sum(sides) for phiHc = 0.114956

faceSource patchOutlet output:
    sum(outlet) for phi = -1.14241e-05
    sum(outlet) for HRR_fu = -1.88548e-88
    sum(outlet) for phiH = -0.000371161
    sum(outlet) for phiHs = 7.91047e-06
    sum(outlet) for phiHc = -0.000379072

faceSource patchInlet output:
    sum(inlet) for phi = -0.000199999
    sum(inlet) for HRR_fu = 10006.2
    sum(inlet) for phiH = 944.578
    sum(inlet) for phiHs = 0.738207
    sum(inlet) for phiHc = 943.839

Calculating averages

Time = 0.316883

Cloud: reactingCloud1
    Current number of parcels       = 0
    Current mass in system          = 0
    Total number of parcels added   = 0
    Total mass introduced           = 0
    Mass transfer phase change      = 0
    min/max(T)      = 298.15, 455.765

diagonal:  Solving for rho, Initial residual = 0, Final residual = 0, No Iterations 0
DILUPBiCG:  Solving for Ux, Initial residual = 0.0139408, Final residual = 1.4593e-09, No Iterations 2
DILUPBiCG:  Solving for Uy, Initial residual = 0.0137601, Final residual = 2.00468e-09, No Iterations 2
DILUPBiCG:  Solving for O2, Initial residual = 0.0302234, Final residual = 2.50688e-09, No Iterations 2
max of O2 = 0.23301
min of O2 = 0.00406989
DILUPBiCG:  Solving for H2O, Initial residual = 0.0249915, Final residual = 8.59447e-09, No Iterations 2
max of H2O = 0.00914685
min of H2O = -1.05806e-06
DILUPBiCG:  Solving for CH4, Initial residual = 0.0239465, Final residual = 2.04482e-09, No Iterations 2
max of CH4 = 0.981024
min of CH4 = 0
DILUPBiCG:  Solving for CO2, Initial residual = 0.0233768, Final residual = 8.03863e-09, No Iterations 2
max of CO2 = 0.0111725
min of CO2 = -1.29238e-06
max of N2 = 0.766992
min of N2 = 0
DILUPBiCG:  Solving for hs, Initial residual = 0.0360373, Final residual = 5.58458e-11, No Iterations 3
[...]
    sum(outlet) for phiHs = 3814.59
    sum(outlet) for phiHc = -12978.1

faceSource patchInlet output:
    sum(inlet) for phi = -0.0002
    sum(inlet) for HRR_fu = 10006.3
    sum(inlet) for phiH = 948.243
    sum(inlet) for phiHs = 4.78876
    sum(inlet) for phiHc = 943.455

Calculating averages

Time = 9.76


--> Cloud: reactingCloud1
    Added 80 new parcels

Cloud: reactingCloud1
    Current number of parcels       = 2663
    Current mass in system          = 0.00991617
    Total number of parcels added   = 11536
    Total mass introduced           = 0.0576
    Mass transfer phase change      = 0.0127381
    min/max(T)      = 293.686, 1705.76

diagonal:  Solving for rho, Initial residual = 0, Final residual = 0, No Iterations 0
DILUPBiCG:  Solving for Ux, Initial residual = 0.0398596, Final residual = 7.92224e-09, No Iterations 6
DILUPBiCG:  Solving for Uy, Initial residual = 0.0499576, Final residual = 4.55166e-08, No Iterations 6
DILUPBiCG:  Solving for O2, Initial residual = 0.026112, Final residual = 1.86315e-09, No Iterations 6
max of O2 = 0.23301
min of O2 = 0.000987124
DILUPBiCG:  Solving for H2O, Initial residual = 0.0307285, Final residual = 3.49581e-15, No Iterations 1
max of H2O = 0.126382
min of H2O = -1.04153e-06
DILUPBiCG:  Solving for CH4, Initial residual = 0.0160495, Final residual = 2.22912e-09, No Iterations 5
max of CH4 = 0.981859
min of CH4 = 0
DILUPBiCG:  Solving for CO2, Initial residual = 0.0519962, Final residual = 2.01469e-09, No Iterations 3
max of CO2 = 0.113351
min of CO2 = -1.27444e-06
max of N2 = 0.777084
min of N2 = 0
DILUPBiCG:  Solving for hs, Initial residual = 0.0303139, Final residual = 7.50055e-09, No Iterations 7
GAMG:  Solving for p_rgh, Initial residual = 0.123507, Final residual = 0.000794903, No Iterations 3
diagonal:  Solving for rho, Initial residual = 0, Final residual = 0, No Iterations 0
time step continuity errors : sum local = 0.000389896, global = 0.000240903, cumulative = 0.0732759
GAMG:  Solving for p_rgh, Initial residual = 0.0176257, Final residual = 3.30627e-07, No Iterations 7
diagonal:  Solving for rho, Initial residual = 0, Final residual = 0, No Iterations 0
time step continuity errors : sum local = 0.000260198, global = 0.000260164, cumulative = 0.0735361
DILUPBiCG:  Solving for k, Initial residual = 0.0354145, Final residual = 2.41549e-10, No Iterations 7
ExecutionTime = 18.83 s  ClockTime = 19 s

Courant Number mean: 0.300442 max: 2.28716
deltaT = 0.04
faceSource patchSides output:
    sum(sides) for phi = -0.0749245
    sum(sides) for HRR_fu = 2.36725e-10
    sum(sides) for phiH = -2.35628
    sum(sides) for phiHs = 0.0201928
    sum(sides) for phiHc = -2.37612

faceSource patchOutlet output:
    sum(outlet) for phi = 0.0763792
    sum(outlet) for HRR_fu = -0.000111572
    sum(outlet) for phiH = -8775.02
    sum(outlet) for phiHs = 3667.1
    sum(outlet) for phiHc = -12441.8

faceSource patchInlet output:
    sum(inlet) for phi = -0.0002
    sum(inlet) for HRR_fu = 10006.3
    sum(inlet) for phiH = 948.223
    sum(inlet) for phiHs = 4.80702
    sum(inlet) for phiHc = 943.416

Calculating averages

Time = 9.8


--> Cloud: reactingCloud1
    Added 80 new parcels

Cloud: reactingCloud1
    Current number of parcels       = 2668
    Current mass in system          = 0.00994667
    Total number of parcels added   = 11616
    Total mass introduced           = 0.058
    Mass transfer phase change      = 0.0128288
    min/max(T)      = 293.698, 1719.76

diagonal:  Solving for rho, Initial residual = 0, Final residual = 0, No Iterations 0
DILUPBiCG:  Solving for Ux, Initial residual = 0.0418585, Final residual = 7.90801e-08, No Iterations 5
DILUPBiCG:  Solving for Uy, Initial residual = 0.0502625, Final residual = 1.53888e-08, No Iterations 6
DILUPBiCG:  Solving for O2, Initial residual = 0.0264767, Final residual = 1.96541e-09, No Iterations 6
max of O2 = 0.23301
min of O2 = 0.00104084
DILUPBiCG:  Solving for H2O, Initial residual = 0.0338653, Final residual = 3.38468e-15, No Iterations 1
max of H2O = 0.126464
min of H2O = -1.04243e-06
DILUPBiCG:  Solving for CH4, Initial residual = 0.0158937, Final residual = 4.06866e-09, No Iterations 5
max of CH4 = 0.981827
min of CH4 = 0
DILUPBiCG:  Solving for CO2, Initial residual = 0.00959728, Final residual = 2.19663e-11, No Iterations 1
max of CO2 = 0.115523
min of CO2 = -1.27481e-06
max of N2 = 0.77692
min of N2 = 0
DILUPBiCG:  Solving for hs, Initial residual = 0.0307705, Final residual = 8.96646e-10, No Iterations 8
GAMG:  Solving for p_rgh, Initial residual = 0.114626, Final residual = 0.000494624, No Iterations 3
diagonal:  Solving for rho, Initial residual = 0, Final residual = 0, No Iterations 0
time step continuity errors : sum local = 0.000348182, global = 0.000299626, cumulative = 0.0738357
GAMG:  Solving for p_rgh, Initial residual = 0.0188543, Final residual = 6.80419e-07, No Iterations 7
diagonal:  Solving for rho, Initial residual = 0, Final residual = 0, No Iterations 0
time step continuity errors : sum local = 0.000265289, global = 0.00026527, cumulative = 0.0741009
DILUPBiCG:  Solving for k, Initial residual = 0.036639, Final residual = 5.94507e-09, No Iterations 6
ExecutionTime = 18.94 s  ClockTime = 19 s

Courant Number mean: 0.298829 max: 2.23719
deltaT = 0.04
faceSource patchSides output:
    sum(sides) for phi = -0.0718667
    sum(sides) for HRR_fu = -1.99183e-08
    sum(sides) for phiH = -2.54639
    sum(sides) for phiHs = -0.0291697
    sum(sides) for phiHc = -2.51739

faceSource patchOutlet output:
    sum(outlet) for phi = 0.0742196
    sum(outlet) for HRR_fu = -8.07304e-05
    sum(outlet) for phiH = -8246.59
    sum(outlet) for phiHs = 3560.09
    sum(outlet) for phiHc = -11806.1

faceSource patchInlet output:
    sum(inlet) for phi = -0.0002
    sum(inlet) for HRR_fu = 10006.3
    sum(inlet) for phiH = 948.137
    sum(inlet) for phiHs = 4.7308
    sum(inlet) for phiHc = 943.406

Calculating averages

Time = 9.84


--> Cloud: reactingCloud1
    Added 80 new parcels

Cloud: reactingCloud1
    Current number of parcels       = 2683
    Current mass in system          = 0.0100048
    Total number of parcels added   = 11696
    Total mass introduced           = 0.0584
    Mass transfer phase change      = 0.0129209
    min/max(T)      = 293.717, 1715.34

diagonal:  Solving for rho, Initial residual = 0, Final residual = 0, No Iterations 0
DILUPBiCG:  Solving for Ux, Initial residual = 0.0429556, Final residual = 3.7484e-08, No Iterations 5
DILUPBiCG:  Solving for Uy, Initial residual = 0.0479688, Final residual = 8.89445e-09, No Iterations 6
DILUPBiCG:  Solving for O2, Initial residual = 0.0278986, Final residual = 1.52823e-09, No Iterations 6
max of O2 = 0.23301
min of O2 = 0.00110179
DILUPBiCG:  Solving for H2O, Initial residual = 0.0512574, Final residual = 3.15465e-15, No Iterations 1
max of H2O = 0.119806
min of H2O = -1.04083e-06
DILUPBiCG:  Solving for CH4, Initial residual = 0.0133852, Final residual = 6.9511e-09, No Iterations 5
max of CH4 = 0.981856
min of CH4 = 0
DILUPBiCG:  Solving for CO2, Initial residual = 0.0606769, Final residual = 3.22151e-09, No Iterations 5
max of CO2 = 0.113654
min of CO2 = -1.27396e-06
max of N2 = 0.776576
min of N2 = 0
DILUPBiCG:  Solving for hs, Initial residual = 0.032832, Final residual = 6.44413e-09, No Iterations 7
GAMG:  Solving for p_rgh, Initial residual = 0.123686, Final residual = 0.000595423, No Iterations 3
diagonal:  Solving for rho, Initial residual = 0, Final residual = 0, No Iterations 0
time step continuity errors : sum local = 0.000352227, global = 0.000236487, cumulative = 0.0743374
GAMG:  Solving for p_rgh, Initial residual = 0.0182858, Final residual = 6.56343e-07, No Iterations 7
diagonal:  Solving for rho, Initial residual = 0, Final residual = 0, No Iterations 0
time step continuity errors : sum local = 0.000269504, global = 0.000269483, cumulative = 0.0746069
DILUPBiCG:  Solving for k, Initial residual = 0.0374591, Final residual = 7.89614e-09, No Iterations 6
ExecutionTime = 19.04 s  ClockTime = 19 s

Courant Number mean: 0.29953 max: 2.12985
deltaT = 0.04
faceSource patchSides output:
    sum(sides) for phi = -0.0745036
    sum(sides) for HRR_fu = -2.9814e-08
    sum(sides) for phiH = -2.69944
    sum(sides) for phiHs = -0.00585747
    sum(sides) for phiHc = -2.69415

faceSource patchOutlet output:
    sum(outlet) for phi = 0.0771783
    sum(outlet) for HRR_fu = -5.76485e-05
    sum(outlet) for phiH = -7806.98
    sum(outlet) for phiHs = 3438.81
    sum(outlet) for phiHc = -11245.4

faceSource patchInlet output:
    sum(inlet) for phi = -0.000199999
    sum(inlet) for HRR_fu = 10006.2
    sum(inlet) for phiH = 948.071
    sum(inlet) for phiHs = 4.68468
    sum(inlet) for phiHc = 943.386

Calculating averages

Time = 9.88


--> Cloud: reactingCloud1
    Added 80 new parcels

Cloud: reactingCloud1
    Current number of parcels       = 2689
    Current mass in system          = 0.0100504
    Total number of parcels added   = 11776
    Total mass introduced           = 0.0588
    Mass transfer phase change      = 0.0130038
    min/max(T)      = 293.74, 1780.32

diagonal:  Solving for rho, Initial residual = 0, Final residual = 0, No Iterations 0
DILUPBiCG:  Solving for Ux, Initial residual = 0.0453714, Final residual = 4.79775e-08, No Iterations 5
DILUPBiCG:  Solving for Uy, Initial residual = 0.051826, Final residual = 6.09398e-08, No Iterations 6
DILUPBiCG:  Solving for O2, Initial residual = 0.0286574, Final residual = 1.78952e-09, No Iterations 6
max of O2 = 0.23301
min of O2 = 0.00116755
DILUPBiCG:  Solving for H2O, Initial residual = 0.053201, Final residual = 4.61504e-15, No Iterations 1
max of H2O = 0.119671
min of H2O = -1.03951e-06
DILUPBiCG:  Solving for CH4, Initial residual = 0.0124059, Final residual = 7.57329e-09, No Iterations 5
max of CH4 = 0.981899
min of CH4 = 0
DILUPBiCG:  Solving for CO2, Initial residual = 0.0240049, Final residual = 5.79162e-10, No Iterations 1
max of CO2 = 0.114319
min of CO2 = -1.27251e-06
max of N2 = 0.776685
min of N2 = 0
DILUPBiCG:  Solving for hs, Initial residual = 0.0332338, Final residual = 7.64377e-09, No Iterations 7
GAMG:  Solving for p_rgh, Initial residual = 0.117291, Final residual = 0.000716104, No Iterations 3
diagonal:  Solving for rho, Initial residual = 0, Final residual = 0, No Iterations 0
time step continuity errors : sum local = 0.000360395, global = 0.000275843, cumulative = 0.0748828
GAMG:  Solving for p_rgh, Initial residual = 0.0205432, Final residual = 5.55721e-07, No Iterations 8
diagonal:  Solving for rho, Initial residual = 0, Final residual = 0, No Iterations 0
time step continuity errors : sum local = 0.000242869, global = 0.000242787, cumulative = 0.0751255
DILUPBiCG:  Solving for k, Initial residual = 0.0376924, Final residual = 7.68745e-09, No Iterations 6
ExecutionTime = 19.14 s  ClockTime = 19 s

Courant Number mean: 0.295257 max: 1.97052
deltaT = 0.04
faceSource patchSides output:
    sum(sides) for phi = -0.0683287
    sum(sides) for HRR_fu = -4.92015e-08
    sum(sides) for phiH = -2.66633
    sum(sides) for phiHs = 0.081174
    sum(sides) for phiHc = -2.74875

faceSource patchOutlet output:
    sum(outlet) for phi = 0.0706204
    sum(outlet) for HRR_fu = -4.03676e-05
    sum(outlet) for phiH = -7269.26
    sum(outlet) for phiHs = 3293.25
    sum(outlet) for phiHc = -10561.5

faceSource patchInlet output:
    sum(inlet) for phi = -0.0002
    sum(inlet) for HRR_fu = 10006.3
    sum(inlet) for phiH = 948.044
    sum(inlet) for phiHs = 4.64442
    sum(inlet) for phiHc = 943.399

Calculating averages

Time = 9.92


--> Cloud: reactingCloud1
    Added 80 new parcels

Cloud: reactingCloud1
    Current number of parcels       = 2717
    Current mass in system          = 0.010175
    Total number of parcels added   = 11856
    Total mass introduced           = 0.0592
    Mass transfer phase change      = 0.0130952
    min/max(T)      = 293.761, 1697.6

diagonal:  Solving for rho, Initial residual = 0, Final residual = 0, No Iterations 0
DILUPBiCG:  Solving for Ux, Initial residual = 0.0492808, Final residual = 5.31354e-08, No Iterations 5
DILUPBiCG:  Solving for Uy, Initial residual = 0.0502491, Final residual = 7.14996e-08, No Iterations 6
DILUPBiCG:  Solving for O2, Initial residual = 0.029554, Final residual = 4.28596e-09, No Iterations 6
max of O2 = 0.23301
min of O2 = 0.0012558
DILUPBiCG:  Solving for H2O, Initial residual = 0.072051, Final residual = 4.99034e-15, No Iterations 1
max of H2O = 0.119574
min of H2O = -1.03732e-06
DILUPBiCG:  Solving for CH4, Initial residual = 0.0126934, Final residual = 7.35735e-09, No Iterations 5
max of CH4 = 0.981925
min of CH4 = 0
DILUPBiCG:  Solving for CO2, Initial residual = 0.00641573, Final residual = 2.54224e-10, No Iterations 1
max of CO2 = 0.112937
min of CO2 = -1.2707e-06
max of N2 = 0.776077
min of N2 = 0
DILUPBiCG:  Solving for hs, Initial residual = 0.0333309, Final residual = 8.34123e-09, No Iterations 7
GAMG:  Solving for p_rgh, Initial residual = 0.12946, Final residual = 0.00102062, No Iterations 3
diagonal:  Solving for rho, Initial residual = 0, Final residual = 0, No Iterations 0
time step continuity errors : sum local = 0.00045434, global = 0.000211537, cumulative = 0.0753371
GAMG:  Solving for p_rgh, Initial residual = 0.0181087, Final residual = 8.58895e-07, No Iterations 7
diagonal:  Solving for rho, Initial residual = 0, Final residual = 0, No Iterations 0
time step continuity errors : sum local = 0.000267561, global = 0.000267503, cumulative = 0.0756046
DILUPBiCG:  Solving for k, Initial residual = 0.0379278, Final residual = 8.67507e-09, No Iterations 6
ExecutionTime = 19.24 s  ClockTime = 19 s

Courant Number mean: 0.299303 max: 2.65142
deltaT = 0.04
faceSource patchSides output:
    sum(sides) for phi = -0.0738996
    sum(sides) for HRR_fu = -8.32285e-08
    sum(sides) for phiH = -3.22264
    sum(sides) for phiHs = 0.263611
    sum(sides) for phiHc = -3.48992

faceSource patchOutlet output:
    sum(outlet) for phi = 0.0762974
    sum(outlet) for HRR_fu = -2.79236e-05
    sum(outlet) for phiH = -6786.22
    sum(outlet) for phiHs = 3121.89
    sum(outlet) for phiHc = -9907.23

faceSource patchInlet output:
    sum(inlet) for phi = -0.0002
    sum(inlet) for HRR_fu = 10006.3
    sum(inlet) for phiH = 948.035
    sum(inlet) for phiHs = 4.64817
    sum(inlet) for phiHc = 943.387

Calculating averages

Time = 9.96


--> Cloud: reactingCloud1
    Added 80 new parcels

Cloud: reactingCloud1
    Current number of parcels       = 2730
    Current mass in system          = 0.0102266
    Total number of parcels added   = 11936
    Total mass introduced           = 0.0596
    Mass transfer phase change      = 0.0131839
    min/max(T)      = 293.768, 1631.16

diagonal:  Solving for rho, Initial residual = 0, Final residual = 0, No Iterations 0
DILUPBiCG:  Solving for Ux, Initial residual = 0.0511587, Final residual = 3.15942e-09, No Iterations 6
DILUPBiCG:  Solving for Uy, Initial residual = 0.0535064, Final residual = 9.2653e-09, No Iterations 6
DILUPBiCG:  Solving for O2, Initial residual = 0.0306579, Final residual = 2.83115e-09, No Iterations 6
max of O2 = 0.23301
min of O2 = 0.00133453
DILUPBiCG:  Solving for H2O, Initial residual = 0.0718839, Final residual = 2.41695e-15, No Iterations 1
max of H2O = 0.124419
min of H2O = -1.02619e-06
DILUPBiCG:  Solving for CH4, Initial residual = 0.0138888, Final residual = 1.72059e-09, No Iterations 6
max of CH4 = 0.981935
min of CH4 = 0
DILUPBiCG:  Solving for CO2, Initial residual = 0.0516609, Final residual = 4.5025e-09, No Iterations 5
max of CO2 = 0.111941
min of CO2 = -1.2667e-06
max of N2 = 0.775828
min of N2 = 0
DILUPBiCG:  Solving for hs, Initial residual = 0.032862, Final residual = 1.24068e-09, No Iterations 8
GAMG:  Solving for p_rgh, Initial residual = 0.12459, Final residual = 0.00108109, No Iterations 3
diagonal:  Solving for rho, Initial residual = 0, Final residual = 0, No Iterations 0
time step continuity errors : sum local = 0.000462126, global = 0.000331732, cumulative = 0.0759363
GAMG:  Solving for p_rgh, Initial residual = 0.024528, Final residual = 8.32409e-07, No Iterations 8
diagonal:  Solving for rho, Initial residual = 0, Final residual = 0, No Iterations 0
time step continuity errors : sum local = 0.000259964, global = 0.000259864, cumulative = 0.0761962
DILUPBiCG:  Solving for k, Initial residual = 0.038673, Final residual = 2.13477e-10, No Iterations 7
ExecutionTime = 19.34 s  ClockTime = 20 s

Courant Number mean: 0.291986 max: 2.23991
deltaT = 0.04
faceSource patchSides output:
    sum(sides) for phi = -0.0627924
    sum(sides) for HRR_fu = -1.48115e-07
    sum(sides) for phiH = -4.29902
    sum(sides) for phiHs = 0.798663
    sum(sides) for phiHc = -5.10835

faceSource patchOutlet output:
    sum(outlet) for phi = 0.0640961
    sum(outlet) for HRR_fu = -1.95201e-05
    sum(outlet) for phiH = -6570.46
    sum(outlet) for phiHs = 2957.54
    sum(outlet) for phiHc = -9526.36

faceSource patchInlet output:
    sum(inlet) for phi = -0.000200001
    sum(inlet) for HRR_fu = 10006.4
    sum(inlet) for phiH = 947.94
    sum(inlet) for phiHs = 4.55843
    sum(inlet) for phiHc = 943.381

Calculating averages

Time = 10


--> Cloud: reactingCloud1
    Added 80 new parcels

Cloud: reactingCloud1
    Current number of parcels       = 2751
    Current mass in system          = 0.0103129
    Total number of parcels added   = 12016
    Total mass introduced           = 0.06
    Mass transfer phase change      = 0.0132731
    min/max(T)      = 293.778, 1695.09

diagonal:  Solving for rho, Initial residual = 0, Final residual = 0, No Iterations 0
DILUPBiCG:  Solving for Ux, Initial residual = 0.0581758, Final residual = 3.08666e-09, No Iterations 6
DILUPBiCG:  Solving for Uy, Initial residual = 0.0572727, Final residual = 8.40262e-09, No Iterations 6
DILUPBiCG:  Solving for O2, Initial residual = 0.030466, Final residual = 2.95385e-09, No Iterations 6
max of O2 = 0.23301
min of O2 = 0.00137231
DILUPBiCG:  Solving for H2O, Initial residual = 0.0402797, Final residual = 6.88268e-15, No Iterations 1
max of H2O = 0.122499
min of H2O = -1.01687e-06
DILUPBiCG:  Solving for CH4, Initial residual = 0.0129218, Final residual = 6.19101e-10, No Iterations 6
max of CH4 = 0.981975
min of CH4 = 0
DILUPBiCG:  Solving for CO2, Initial residual = 0.0427831, Final residual = 1.17718e-11, No Iterations 1
max of CO2 = 0.11281
min of CO2 = -1.25962e-06
max of N2 = 0.775828
min of N2 = 0
DILUPBiCG:  Solving for hs, Initial residual = 0.0318056, Final residual = 8.72358e-09, No Iterations 7
GAMG:  Solving for p_rgh, Initial residual = 0.156512, Final residual = 0.000552171, No Iterations 4
diagonal:  Solving for rho, Initial residual = 0, Final residual = 0, No Iterations 0
time step continuity errors : sum local = 0.000349238, global = 0.000246076, cumulative = 0.0764423
GAMG:  Solving for p_rgh, Initial residual = 0.0213652, Final residual = 3.70016e-07, No Iterations 7
diagonal:  Solving for rho, Initial residual = 0, Final residual = 0, No Iterations 0
time step continuity errors : sum local = 0.000261204, global = 0.000261183, cumulative = 0.0767034
DILUPBiCG:  Solving for k, Initial residual = 0.0382782, Final residual = 1.41543e-10, No Iterations 7
ExecutionTime = 19.44 s  ClockTime = 20 s

faceSource patchSides output:
    sum(sides) for phi = -0.0667617
    sum(sides) for HRR_fu = -2.65422e-07
    sum(sides) for phiH = -9.52846
    sum(sides) for phiHs = 2.19601
    sum(sides) for phiHc = -11.7604

faceSource patchOutlet output:
    sum(outlet) for phi = 0.0690445
    sum(outlet) for HRR_fu = -1.26756e-05
    sum(outlet) for phiH = -5901.06
    sum(outlet) for phiHs = 2710.72
    sum(outlet) for phiHc = -8609.74

faceSource patchInlet output:
    sum(inlet) for phi = -0.0002
    sum(inlet) for HRR_fu = 10006.3
    sum(inlet) for phiH = 947.794
    sum(inlet) for phiHs = 4.43086
    sum(inlet) for phiHc = 943.363

Calculating averages

End

