/*---------------------------------------------------------------------------*\
| =========                 |                                                 |
| \\      /  F ield         | OpenFOAM: The Open Source CFD Toolbox           |
|  \\    /   O peration     | Version:  1.7.x                                 |
|   \\  /    A nd           | Web:      www.OpenFOAM.com                      |
|    \\/     M anipulation  |                                                 |
\*---------------------------------------------------------------------------*/
Build  : 1.7.x-e90828cd94a4
Exec   : fireFoam
Date   : Mar 04 2011
Time   : 06:21:23
Host   : wangyUbuntu
PID    : 3665
Case   : /home/wangy/OpenFOAM/wangy-1.7.x/run/fireFoam/testBatteryFireFOAM/counterFlowFlame2D
nProcs : 1
SigFpe : Enabling floating point exception trapping (FOAM_SIGFPE).

// * * * * * * * * * * * * * * * * * * * * * * * * * * * * * * * * * * * * * //
Create time

Create mesh for time = 0


Reading g
Reading thermophysical properties

Selecting thermodynamics package hsPsiMixtureThermoNew<singleStepReactingMixture<gasThermoPhysics>>
Selecting chemistryReader foamChemistryReader
Fuel heat of combustion :5.00314e+07
Mole based specieStoichCoeffs: 5(-2 2 -1 1 7.52)
stoichiometric air-fuel ratio :17.1204
stoichiometric oxygen-fuel ratio :3.98918
Max products: 5(0 0.123944 0 0.151392 0.724664)
mass based specieStoichCoeffs: 5(-3.98918 2.2459 -1 2.74329 13.1312)
Creating component thermo properties:
    multi-component carrier - 5 species
    liquids - 1 components
    solids - 0 components
Reading field p_rgh

Reading field U

Reading/calculating face flux field phi

Creating turbulence model

Selecting turbulence model type LESModel
Selecting LES turbulence model oneEqEddy
--> FOAM Warning : 
    From function cubeRootVolDelta::calcDelta()
    in file cubeRootVolDelta/cubeRootVolDelta.C at line 52
    Case is 2D, LES is not strictly applicable

oneEqEddyCoeffs
{
    ce              1.048;
    Prt             1;
    ck              0.094;
}

Creating combustion model

Selecting combustion model infinitelyFastChemistry
stoichiometric mixture fraction is = 0.0551866
Creating field DpDt

Calculating field g.h

Selecting radiationModel none
Creating pyrolysis model

Selecting pyrolysisModel none

Constructing reacting cloud
Selecting DispersionModel none
Selecting DragModel SphereDrag
Selecting InjectionModel ConeInjection
    Constructing 2-D injection
Selecting pdfType RosinRammler
Selecting PatchInteractionModel StandardWallInteraction
Selecting PostProcessingModel none
Selecting SurfaceFilmModel ThermoSurfaceFilm
    Applying absorb interaction model
Selecting U IntegrationScheme Euler
Selecting HeatTransferModel RanzMarshall
Selecting T IntegrationScheme Analytical
Selecting CompositionModel SinglePhaseMixture
Selecting PhaseChangeModel LiquidEvaporation

Constructing surface film model
Selecting surfaceFilmModel none
Courant Number mean: 0 max: 0.5

Starting time loop

Courant Number mean: 0 max: 0.961538
deltaT = 0.00192308
cellSource HRR:
    total cells  = 500
    total volume = 8e-07



Time = 0.00192308

diagonal:  Solving for rho, Initial residual = 0, Final residual = 0, No Iterations 0
smoothSolver:  Solving for Ux, Initial residual = 1, Final residual = 2.64538e-08, No Iterations 9
smoothSolver:  Solving for Uy, Initial residual = 0.0019401, Final residual = 9.84031e-08, No Iterations 5
smoothSolver:  Solving for O2, Initial residual = 1, Final residual = 2.11646e-08, No Iterations 7
max of O2 = 0.23301
min of O2 = 0
smoothSolver:  Solving for H2O, Initial residual = 0, Final residual = 0, No Iterations 0
max of H2O = 0
min of H2O = 0
smoothSolver:  Solving for CH4, Initial residual = 1, Final residual = 2.11646e-08, No Iterations 7
max of CH4 = 1
min of CH4 = 0
smoothSolver:  Solving for CO2, Initial residual = 0, Final residual = 0, No Iterations 0
max of CO2 = 0
min of CO2 = 0
max of N2 = 0.76699
min of N2 = 0
DILUPBiCG:  Solving for hs, Initial residual = 1, Final residual = 2.85253e-09, No Iterations 3
GAMG:  Solving for p_rgh, Initial residual = 1, Final residual = 0.00412053, No Iterations 8
diagonal:  Solving for rho, Initial residual = 0, Final residual = 0, No Iterations 0
time step continuity errors : sum local = 8.74965e-05, global = 4.09039e-05, cumulative = 4.09039e-05
GAMG:  Solving for p_rgh, Initial residual = 0.0343357, Final residual = 9.44575e-08, No Iterations 19
diagonal:  Solving for rho, Initial residual = 0, Final residual = 0, No Iterations 0
time step continuity errors : sum local = 1.62732e-08, global = 4.10859e-09, cumulative = 4.0908e-05
smoothSolver:  Solving for k, Initial residual = 1, Final residual = 4.90398e-08, No Iterations 12
ExecutionTime = 0.06 s  ClockTime = 0 s

Courant Number mean: 0.176659 max: 0.961541
deltaT = 0.00192308
Time = 0.00384615

diagonal:  Solving for rho, Initial residual = 0, Final residual = 0, No Iterations 0
smoothSolver:  Solving for Ux, Initial residual = 0.333758, Final residual = 2.67945e-08, No Iterations 11
smoothSolver:  Solving for Uy, Initial residual = 0.319347, Final residual = 3.45217e-08, No Iterations 10
smoothSolver:  Solving for O2, Initial residual = 0.435264, Final residual = 6.9617e-08, No Iterations 7
max of O2 = 0.23301
min of O2 = 0
smoothSolver:  Solving for H2O, Initial residual = 1, Final residual = 2.71267e-08, No Iterations 8
max of H2O = 0.046263
min of H2O = 0
smoothSolver:  Solving for CH4, Initial residual = 0.177132, Final residual = 3.1174e-08, No Iterations 7
max of CH4 = 1
min of CH4 = 0
smoothSolver:  Solving for CO2, Initial residual = 1, Final residual = 2.57637e-08, No Iterations 8
max of CO2 = 0.0565085
min of CO2 = 0
max of N2 = 0.76699
min of N2 = 0
DILUPBiCG:  Solving for hs, Initial residual = 0.997947, Final residual = 2.77151e-08, No Iterations 4
GAMG:  Solving for p_rgh, Initial residual = 0.376644, Final residual = 0.00163029, No Iterations 8
diagonal:  Solving for rho, Initial residual = 0, Final residual = 0, No Iterations 0
time step continuity errors : sum local = 0.000284587, global = 0.000114746, cumulative = 0.000155654
GAMG:  Solving for p_rgh, Initial residual = 0.0504275, Final residual = 7.00857e-08, No Iterations 19
diagonal:  Solving for rho, Initial residual = 0, Final residual = 0, No Iterations 0
time step continuity errors : sum local = 3.90828e-08, global = 8.58705e-09, cumulative = 0.000155662
smoothSolver:  Solving for k, Initial residual = 0.976877, Final residual = 7.79034e-08, No Iterations 47
ExecutionTime = 0.08 s  ClockTime = 0 s

Courant Number mean: 1.03249 max: 6.4701
deltaT = 0.000295858
Time = 0.00414201

diagonal:  Solving for rho, Initial residual = 0, Final residual = 0, No Iterations 0
smoothSolver:  Solving for Ux, Initial residual = 0.101108, Final residual = 2.65902e-08, No Iterations 9
smoothSolver:  Solving for Uy, Initial residual = 0.0627701, Final residual = 4.4729e-08, No Iterations 8
smoothSolver:  Solving for O2, Initial residual = 0.111645, Final residual = 2.16891e-08, No Iterations 8
max of O2 = 0.23301
min of O2 = 0
smoothSolver:  Solving for H2O, Initial residual = 0.193979, Final residual = 2.85829e-08, No Iterations 8
max of H2O = 0.0572217
min of H2O = 0
smoothSolver:  Solving for CH4, Initial residual = 0.0459069, Final residual = 1.49855e-08, No Iterations 8
max of CH4 = 1
min of CH4 = 0
smoothSolver:  Solving for CO2, Initial residual = 0.193852, Final residual = 2.85277e-08, No Iterations 8
max of CO2 = 0.069894
min of CO2 = 0
max of N2 = 0.76699
min of N2 = 0
DILUPBiCG:  Solving for hs, Initial residual = 0.156753, Final residual = 2.94068e-09, No Iterations 4
GAMG:  Solving for p_rgh, Initial residual = 0.678321, Final residual = 0.00281667, No Iterations 8
diagonal:  Solving for rho, Initial residual = 0, Final residual = 0, No Iterations 0
time step continuity errors : sum local = 0.000103794, global = 4.5084e-05, cumulative = 0.000200746
GAMG:  Solving for p_rgh, Initial residual = 0.0340002, Final residual = 5.98097e-08, No Iterations 18
diagonal:  Solving for rho, Initial residual = 0, Final residual = 0, No Iterations 0
time step continuity errors : sum local = 1.09372e-08, global = -4.43248e-09, cumulative = 0.000200742
smoothSolver:  Solving for k, Initial residual = 0.771825, Final residual = 7.41079e-08, No Iterations 35
ExecutionTime = 0.09 s  ClockTime = 0 s

Courant Number mean: 0.321057 max: 2.51011
deltaT = 0.000117585
Time = 0.0042596

diagonal:  Solving for rho, Initial residual = 0, Final residual = 0, No Iterations 0
smoothSolver:  Solving for Ux, Initial residual = 0.154137, Final residual = 5.38034e-08, No Iterations 9
smoothSolver:  Solving for Uy, Initial residual = 0.118628, Final residual = 2.26801e-08, No Iterations 9
smoothSolver:  Solving for O2, Initial residual = 0.0463016, Final residual = 1.50289e-08, No Iterations 7
max of O2 = 0.23301
min of O2 = 0
smoothSolver:  Solving for H2O, Initial residual = 0.0763696, Final residual = 2.60566e-08, No Iterations 7
max of H2O = 0.0758164
min of H2O = 0
smoothSolver:  Solving for CH4, Initial residual = 0.0074569, Final residual = 1.56173e-08, No Iterations 6
max of CH4 = 1
min of CH4 = 0
smoothSolver:  Solving for CO2, Initial residual = 0.0763767, Final residual = 2.55772e-08, No Iterations 7
max of CO2 = 0.0926067
min of CO2 = 0
max of N2 = 0.76699
min of N2 = 0
DILUPBiCG:  Solving for hs, Initial residual = 0.0599739, Final residual = 1.51533e-08, No Iterations 4
GAMG:  Solving for p_rgh, Initial residual = 0.245964, Final residual = 0.00102112, No Iterations 8
diagonal:  Solving for rho, Initial residual = 0, Final residual = 0, No Iterations 0
time step continuity errors : sum local = 3.43893e-05, global = 1.49795e-05, cumulative = 0.000215721
GAMG:  Solving for p_rgh, Initial residual = 0.0171522, Final residual = 8.87431e-08, No Iterations 17
diagonal:  Solving for rho, Initial residual = 0, Final residual = 0, No Iterations 0
time step continuity errors : sum local = 7.88083e-09, global = 1.79234e-09, cumulative = 0.000215723
smoothSolver:  Solving for k, Initial residual = 0.588887, Final residual = 5.83378e-08, No Iterations 11
ExecutionTime = 0.1 s  ClockTime = 0 s

Courant Number mean: 0.217401 max: 2.12227
deltaT = 5.53758e-05
Time = 0.00431497

diagonal:  Solving for rho, Initial residual = 0, Final residual = 0, No Iterations 0
smoothSolver:  Solving for Ux, Initial residual = 0.126627, Final residual = 5.20616e-08, No Iterations 8
smoothSolver:  Solving for Uy, Initial residual = 0.103092, Final residual = 3.22384e-08, No Iterations 8
smoothSolver:  Solving for O2, Initial residual = 0.025499, Final residual = 3.83287e-08, No Iterations 6
max of O2 = 0.23301
min of O2 = 0
smoothSolver:  Solving for H2O, Initial residual = 0.0376264, Final residual = 5.91325e-08, No Iterations 6
max of H2O = 0.0885572
min of H2O = 0
smoothSolver:  Solving for CH4, Initial residual = 0.00284731, Final residual = 1.19857e-08, No Iterations 5
max of CH4 = 1
min of CH4 = 0
smoothSolver:  Solving for CO2, Initial residual = 0.0376213, Final residual = 5.87741e-08, No Iterations 6
max of CO2 = 0.108169
min of CO2 = 0
max of N2 = 0.76699
min of N2 = 0
DILUPBiCG:  Solving for hs, Initial residual = 0.0292026, Final residual = 6.55405e-09, No Iterations 4
GAMG:  Solving for p_rgh, Initial residual = 0.149562, Final residual = 0.00116331, No Iterations 7
diagonal:  Solving for rho, Initial residual = 0, Final residual = 0, No Iterations 0
time step continuity errors : sum local = 2.55909e-05, global = -6.96225e-06, cumulative = 0.000208761
GAMG:  Solving for p_rgh, Initial residual = 0.0133108, Final residual = 4.14057e-08, No Iterations 16
diagonal:  Solving for rho, Initial residual = 0, Final residual = 0, No Iterations 0
time step continuity errors : sum local = 1.68387e-09, global = -7.12014e-10, cumulative = 0.00020876
smoothSolver:  Solving for k, Initial residual = 0.305789, Final residual = 9.16897e-08, No Iterations 6
ExecutionTime = 0.11 s  ClockTime = 0 s

Courant Number mean: 0.138094 max: 1.50644
deltaT = 3.67538e-05
Time = 0.00435173

diagonal:  Solving for rho, Initial residual = 0, Final residual = 0, No Iterations 0
smoothSolver:  Solving for Ux, Initial residual = 0.124591, Final residual = 2.03243e-08, No Iterations 8
smoothSolver:  Solving for Uy, Initial residual = 0.0973061, Final residual = 7.60447e-08, No Iterations 7
smoothSolver:  Solving for O2, Initial residual = 0.0137276, Final residual = 3.57789e-08, No Iterations 6
max of O2 = 0.23301
min of O2 = 0
smoothSolver:  Solving for H2O, Initial residual = 0.0194061, Final residual = 5.33687e-08, No Iterations 6
max of H2O = 0.0988616
min of H2O = 0
smoothSolver:  Solving for CH4, Initial residual = 0.00193163, Final residual = 2.88473e-08, No Iterations 5
max of CH4 = 1
min of CH4 = 0
smoothSolver:  Solving for CO2, Initial residual = 0.0194303, Final residual = 5.3106e-08, No Iterations 6
max of CO2 = 0.120755
min of CO2 = 0
max of N2 = 0.76699
min of N2 = 0
DILUPBiCG:  Solving for hs, Initial residual = 0.0159654, Final residual = 2.44542e-09, No Iterations 4
GAMG:  Solving for p_rgh, Initial residual = 0.122375, Final residual = 0.000775019, No Iterations 6
diagonal:  Solving for rho, Initial residual = 0, Final residual = 0, No Iterations 0
time step continuity errors : sum local = 1.40996e-05, global = -6.72471e-06, cumulative = 0.000202035
GAMG:  Solving for p_rgh, Initial residual = 0.0307842, Final residual = 6.86213e-08, No Iterations 16
diagonal:  Solving for rho, Initial residual = 0, Final residual = 0, No Iterations 0
time step continuity errors : sum local = 1.03819e-09, global = 4.52135e-10, cumulative = 0.000202036
smoothSolver:  Solving for k, Initial residual = 0.126699, Final residual = 1.79865e-08, No Iterations 6
ExecutionTime = 0.12 s  ClockTime = 0 s

Courant Number mean: 0.10203 max: 1.07867
deltaT = 3.40659e-05
Time = 0.00438579

diagonal:  Solving for rho, Initial residual = 0, Final residual = 0, No Iterations 0
smoothSolver:  Solving for Ux, Initial residual = 0.0868688, Final residual = 9.8762e-08, No Iterations 7
smoothSolver:  Solving for Uy, Initial residual = 0.0656787, Final residual = 4.81375e-08, No Iterations 7
smoothSolver:  Solving for O2, Initial residual = 0.00774085, Final residual = 4.26602e-08, No Iterations 6
max of O2 = 0.23301
min of O2 = 0
smoothSolver:  Solving for H2O, Initial residual = 0.01058, Final residual = 6.14427e-08, No Iterations 6
max of H2O = 0.104843
min of H2O = 0
smoothSolver:  Solving for CH4, Initial residual = 0.00201195, Final residual = 3.87504e-08, No Iterations 5
max of CH4 = 1
min of CH4 = 0
smoothSolver:  Solving for CO2, Initial residual = 0.0106182, Final residual = 6.11555e-08, No Iterations 6
max of CO2 = 0.128061
min of CO2 = 0
max of N2 = 0.76699
min of N2 = 0
DILUPBiCG:  Solving for hs, Initial residual = 0.00948524, Final residual = 1.79943e-09, No Iterations 4
GAMG:  Solving for p_rgh, Initial residual = 0.189216, Final residual = 0.00166682, No Iterations 7
diagonal:  Solving for rho, Initial residual = 0, Final residual = 0, No Iterations 0
time step continuity errors : sum local = 2.25729e-05, global = 6.30833e-06, cumulative = 0.000208344
GAMG:  Solving for p_rgh, Initial residual = 0.0625112, Final residual = 5.51641e-08, No Iterations 18
diagonal:  Solving for rho, Initial residual = 0, Final residual = 0, No Iterations 0
time step continuity errors : sum local = 4.84215e-10, global = 2.1534e-10, cumulative = 0.000208344
smoothSolver:  Solving for k, Initial residual = 0.0281517, Final residual = 2.55575e-08, No Iterations 5
ExecutionTime = 0.13 s  ClockTime = 0 s

Courant Number mean: 0.0836751 max: 0.738082
deltaT = 3.86561e-05
Time = 0.00442445

diagonal:  Solving for rho, Initial residual = 0, Final residual = 0, No Iterations 0
smoothSolver:  Solving for Ux, Initial residual = 0.0874789, Final residual = 2.16676e-08, No Iterations 8
smoothSolver:  Solving for Uy, Initial residual = 0.0468683, Final residual = 6.50714e-08, No Iterations 7
smoothSolver:  Solving for O2, Initial residual = 0.00461814, Final residual = 4.64188e-08, No Iterations 6
max of O2 = 0.23301
min of O2 = 0
smoothSolver:  Solving for H2O, Initial residual = 0.00618452, Final residual = 6.49582e-08, No Iterations 6
max of H2O = 0.107697
min of H2O = 0
smoothSolver:  Solving for CH4, Initial residual = 0.00230432, Final residual = 2.64043e-08, No Iterations 5
max of CH4 = 1
min of CH4 = 0
smoothSolver:  Solving for CO2, Initial residual = 0.00623136, Final residual = 6.47167e-08, No Iterations 6
max of CO2 = 0.131547
min of CO2 = 0
max of N2 = 0.76699
min of N2 = 0
DILUPBiCG:  Solving for hs, Initial residual = 0.00585849, Final residual = 5.86677e-10, No Iterations 4
GAMG:  Solving for p_rgh, Initial residual = 0.316014, Final residual = 0.00253884, No Iterations 6
diagonal:  Solving for rho, Initial residual = 0, Final residual = 0, No Iterations 0
time step continuity errors : sum local = 2.76226e-05, global = -1.26478e-05, cumulative = 0.000195697
GAMG:  Solving for p_rgh, Initial residual = 0.0162849, Final residual = 4.24788e-08, No Iterations 16
diagonal:  Solving for rho, Initial residual = 0, Final residual = 0, No Iterations 0
time step continuity errors : sum local = 1.1755e-09, global = 5.19294e-10, cumulative = 0.000195697
smoothSolver:  Solving for k, Initial residual = 0.0340883, Final residual = 7.87895e-08, No Iterations 4
ExecutionTime = 0.14 s  ClockTime = 0 s

Courant Number mean: 0.0652937 max: 0.326491
deltaT = 4.63637e-05
Time = 0.00447081

diagonal:  Solving for rho, Initial residual = 0, Final residual = 0, No Iterations 0
smoothSolver:  Solving for Ux, Initial residual = 0.317737, Final residual = 4.54859e-08, No Iterations 7
smoothSolver:  Solving for Uy, Initial residual = 0.323348, Final residual = 2.12571e-08, No Iterations 8
smoothSolver:  Solving for O2, Initial residual = 0.00389879, Final residual = 1.78747e-08, No Iterations 6
max of O2 = 0.23301
min of O2 = 0
smoothSolver:  Solving for H2O, Initial residual = 0.00528754, Final residual = 2.41738e-08, No Iterations 6
max of H2O = 0.109266
min of H2O = 0
smoothSolver:  Solving for CH4, Initial residual = 0.00339914, Final residual = 2.08023e-08, No Iterations 5
max of CH4 = 1
min of CH4 = 0
smoothSolver:  Solving for CO2, Initial residual = 0.00532662, Final residual = 2.39628e-08, No Iterations 6
max of CO2 = 0.133463
min of CO2 = 0
max of N2 = 0.76699
min of N2 = 0
DILUPBiCG:  Solving for hs, Initial residual = 0.00488385, Final residual = 1.86472e-09, No Iterations 3
GAMG:  Solving for p_rgh, Initial residual = 0.0766621, Final residual = 0.000673985, No Iterations 6
diagonal:  Solving for rho, Initial residual = 0, Final residual = 0, No Iterations 0
time step continuity errors : sum local = 2.49872e-05, global = 1.18564e-05, cumulative = 0.000207554
GAMG:  Solving for p_rgh, Initial residual = 0.0231315, Final residual = 7.69774e-08, No Iterations 17
diagonal:  Solving for rho, Initial residual = 0, Final residual = 0, No Iterations 0
time step continuity errors : sum local = 2.06454e-09, global = 5.06649e-10, cumulative = 0.000207554
smoothSolver:  Solving for k, Initial residual = 0.0431718, Final residual = 4.36886e-08, No Iterations 5
ExecutionTime = 0.15 s  ClockTime = 0 s

Courant Number mean: 0.0639403 max: 0.280444
deltaT = 5.55912e-05
Time = 0.0045264

diagonal:  Solving for rho, Initial residual = 0, Final residual = 0, No Iterations 0
smoothSolver:  Solving for Ux, Initial residual = 0.263226, Final residual = 5.10223e-08, No Iterations 7
smoothSolver:  Solving for Uy, Initial residual = 0.424506, Final residual = 3.38169e-08, No Iterations 8
smoothSolver:  Solving for O2, Initial residual = 0.00459082, Final residual = 2.42067e-08, No Iterations 6
max of O2 = 0.23301
min of O2 = 0
smoothSolver:  Solving for H2O, Initial residual = 0.00669512, Final residual = 3.17256e-08, No Iterations 6
max of H2O = 0.109529
min of H2O = 0
smoothSolver:  Solving for CH4, Initial residual = 0.00536106, Final residual = 6.64372e-08, No Iterations 5
max of CH4 = 1
min of CH4 = 0
smoothSolver:  Solving for CO2, Initial residual = 0.00671683, Final residual = 3.05285e-08, No Iterations 6
max of CO2 = 0.13379
min of CO2 = 0
max of N2 = 0.76699
min of N2 = 0
DILUPBiCG:  Solving for hs, Initial residual = 0.00695881, Final residual = 3.86319e-09, No Iterations 3
GAMG:  Solving for p_rgh, Initial residual = 0.116973, Final residual = 0.00103165, No Iterations 7
diagonal:  Solving for rho, Initial residual = 0, Final residual = 0, No Iterations 0
time step continuity errors : sum local = 3.85274e-05, global = -1.05351e-05, cumulative = 0.000197019
GAMG:  Solving for p_rgh, Initial residual = 0.214744, Final residual = 8.59956e-08, No Iterations 20
diagonal:  Solving for rho, Initial residual = 0, Final residual = 0, No Iterations 0
time step continuity errors : sum local = 3.26383e-10, global = -1.4899e-10, cumulative = 0.000197019
smoothSolver:  Solving for k, Initial residual = 0.037448, Final residual = 2.12964e-08, No Iterations 6
ExecutionTime = 0.16 s  ClockTime = 0 s

Courant Number mean: 0.0754377 max: 0.390768
deltaT = 6.66768e-05
Time = 0.00459308

diagonal:  Solving for rho, Initial residual = 0, Final residual = 0, No Iterations 0
smoothSolver:  Solving for Ux, Initial residual = 0.0386306, Final residual = 1.34882e-08, No Iterations 7
smoothSolver:  Solving for Uy, Initial residual = 0.0503062, Final residual = 9.28153e-08, No Iterations 7
smoothSolver:  Solving for O2, Initial residual = 0.00490653, Final residual = 7.22095e-08, No Iterations 6
max of O2 = 0.23301
min of O2 = 0
smoothSolver:  Solving for H2O, Initial residual = 0.00803096, Final residual = 9.60419e-08, No Iterations 6
max of H2O = 0.109011
min of H2O = 0
smoothSolver:  Solving for CH4, Initial residual = 0.00572898, Final residual = 2.52292e-08, No Iterations 6
max of CH4 = 1
min of CH4 = 0
smoothSolver:  Solving for CO2, Initial residual = 0.00808549, Final residual = 9.25552e-08, No Iterations 6
max of CO2 = 0.133165
min of CO2 = 0
max of N2 = 0.76699
min of N2 = 0
DILUPBiCG:  Solving for hs, Initial residual = 0.00875259, Final residual = 1.45311e-08, No Iterations 3
GAMG:  Solving for p_rgh, Initial residual = 0.347578, Final residual = 0.00250553, No Iterations 7
diagonal:  Solving for rho, Initial residual = 0, Final residual = 0, No Iterations 0
time step continuity errors : sum local = 2.01284e-05, global = -5.37566e-06, cumulative = 0.000191643
GAMG:  Solving for p_rgh, Initial residual = 0.0319353, Final residual = 5.37889e-08, No Iterations 18
diagonal:  Solving for rho, Initial residual = 0, Final residual = 0, No Iterations 0
time step continuity errors : sum local = 6.95282e-10, global = -3.1129e-10, cumulative = 0.000191643
smoothSolver:  Solving for k, Initial residual = 0.0333353, Final residual = 3.47175e-08, No Iterations 6
ExecutionTime = 0.17 s  ClockTime = 0 s

Courant Number mean: 0.0916627 max: 0.357035
deltaT = 7.99418e-05
Time = 0.00467302

diagonal:  Solving for rho, Initial residual = 0, Final residual = 0, No Iterations 0
smoothSolver:  Solving for Ux, Initial residual = 0.0657685, Final residual = 4.0506e-08, No Iterations 8
smoothSolver:  Solving for Uy, Initial residual = 0.0889539, Final residual = 7.42586e-08, No Iterations 8
smoothSolver:  Solving for O2, Initial residual = 0.00514477, Final residual = 2.97143e-08, No Iterations 7
max of O2 = 0.23301
min of O2 = 0
smoothSolver:  Solving for H2O, Initial residual = 0.0086787, Final residual = 3.77037e-08, No Iterations 7
max of H2O = 0.108067
min of H2O = 0
smoothSolver:  Solving for CH4, Initial residual = 0.0056579, Final residual = 6.62439e-08, No Iterations 6
max of CH4 = 1
min of CH4 = 0
smoothSolver:  Solving for CO2, Initial residual = 0.00868696, Final residual = 3.48126e-08, No Iterations 7
max of CO2 = 0.132049
min of CO2 = 0
max of N2 = 0.76699
min of N2 = 0
DILUPBiCG:  Solving for hs, Initial residual = 0.00943768, Final residual = 1.4343e-08, No Iterations 3
GAMG:  Solving for p_rgh, Initial residual = 0.107621, Final residual = 0.000506764, No Iterations 7
diagonal:  Solving for rho, Initial residual = 0, Final residual = 0, No Iterations 0
time step continuity errors : sum local = 8.00032e-06, global = -3.11982e-06, cumulative = 0.000188523
GAMG:  Solving for p_rgh, Initial residual = 0.0680445, Final residual = 5.00754e-08, No Iterations 19
diagonal:  Solving for rho, Initial residual = 0, Final residual = 0, No Iterations 0
time step continuity errors : sum local = 3.42209e-10, global = 1.41701e-10, cumulative = 0.000188523
smoothSolver:  Solving for k, Initial residual = 0.0295101, Final residual = 4.72639e-08, No Iterations 6
ExecutionTime = 0.18 s  ClockTime = 0 s

Courant Number mean: 0.109479 max: 0.424329
deltaT = 9.58287e-05
Time = 0.00476885

diagonal:  Solving for rho, Initial residual = 0, Final residual = 0, No Iterations 0
smoothSolver:  Solving for Ux, Initial residual = 0.0507525, Final residual = 2.55048e-08, No Iterations 9
smoothSolver:  Solving for Uy, Initial residual = 0.042952, Final residual = 9.88011e-08, No Iterations 8
smoothSolver:  Solving for O2, Initial residual = 0.00537289, Final residual = 9.9379e-08, No Iterations 7
max of O2 = 0.23301
min of O2 = 0
smoothSolver:  Solving for H2O, Initial residual = 0.00917349, Final residual = 2.20708e-08, No Iterations 8
max of H2O = 0.107372
min of H2O = 0
smoothSolver:  Solving for CH4, Initial residual = 0.0058944, Final residual = 3.02387e-08, No Iterations 7
max of CH4 = 1
min of CH4 = 0
smoothSolver:  Solving for CO2, Initial residual = 0.00918075, Final residual = 1.92881e-08, No Iterations 8
max of CO2 = 0.13118
min of CO2 = 0
max of N2 = 0.76699
min of N2 = 0
DILUPBiCG:  Solving for hs, Initial residual = 0.00994099, Final residual = 1.48553e-08, No Iterations 3
GAMG:  Solving for p_rgh, Initial residual = 0.134937, Final residual = 0.000998329, No Iterations 7
diagonal:  Solving for rho, Initial residual = 0, Final residual = 0, No Iterations 0
time step continuity errors : sum local = 1.04169e-05, global = 2.48439e-06, cumulative = 0.000191007
GAMG:  Solving for p_rgh, Initial residual = 0.111082, Final residual = 4.65262e-08, No Iterations 20
diagonal:  Solving for rho, Initial residual = 0, Final residual = 0, No Iterations 0
time step continuity errors : sum local = 1.71902e-10, global = 7.62876e-11, cumulative = 0.000191008
smoothSolver:  Solving for k, Initial residual = 0.02654, Final residual = 9.25818e-08, No Iterations 6
ExecutionTime = 0.19 s  ClockTime = 0 s

Courant Number mean: 0.128195 max: 0.477008
deltaT = 0.0001148
Time = 0.00488365

diagonal:  Solving for rho, Initial residual = 0, Final residual = 0, No Iterations 0
smoothSolver:  Solving for Ux, Initial residual = 0.0267616, Final residual = 2.37932e-08, No Iterations 9
smoothSolver:  Solving for Uy, Initial residual = 0.0147977, Final residual = 3.99559e-08, No Iterations 9
smoothSolver:  Solving for O2, Initial residual = 0.00594574, Final residual = 6.42087e-08, No Iterations 8
max of O2 = 0.23301
min of O2 = 0
smoothSolver:  Solving for H2O, Initial residual = 0.0102438, Final residual = 8.16032e-08, No Iterations 8
max of H2O = 0.10787
min of H2O = 0
smoothSolver:  Solving for CH4, Initial residual = 0.00657521, Final residual = 2.00082e-08, No Iterations 8
max of CH4 = 1
min of CH4 = 0
smoothSolver:  Solving for CO2, Initial residual = 0.0102871, Final residual = 7.29575e-08, No Iterations 8
max of CO2 = 0.131813
min of CO2 = 0
max of N2 = 0.76699
min of N2 = 0
DILUPBiCG:  Solving for hs, Initial residual = 0.0110716, Final residual = 4.48187e-08, No Iterations 3
GAMG:  Solving for p_rgh, Initial residual = 0.380048, Final residual = 0.00363709, No Iterations 5
diagonal:  Solving for rho, Initial residual = 0, Final residual = 0, No Iterations 0
time step continuity errors : sum local = 1.27347e-05, global = 2.81772e-06, cumulative = 0.000193825
GAMG:  Solving for p_rgh, Initial residual = 0.0691582, Final residual = 8.34114e-08, No Iterations 18
diagonal:  Solving for rho, Initial residual = 0, Final residual = 0, No Iterations 0
time step continuity errors : sum local = 3.90254e-10, global = 8.79965e-11, cumulative = 0.000193825
smoothSolver:  Solving for k, Initial residual = 0.0243899, Final residual = 4.007e-08, No Iterations 7
ExecutionTime = 0.2 s  ClockTime = 0 s

Courant Number mean: 0.15303 max: 0.536255
deltaT = 0.000135893
Time = 0.00501954

diagonal:  Solving for rho, Initial residual = 0, Final residual = 0, No Iterations 0
smoothSolver:  Solving for Ux, Initial residual = 0.0240163, Final residual = 9.69437e-08, No Iterations 9
smoothSolver:  Solving for Uy, Initial residual = 0.0227163, Final residual = 5.31681e-08, No Iterations 10
smoothSolver:  Solving for O2, Initial residual = 0.00647387, Final residual = 5.23112e-08, No Iterations 9
max of O2 = 0.23301
min of O2 = 0
smoothSolver:  Solving for H2O, Initial residual = 0.0112133, Final residual = 6.52467e-08, No Iterations 9
max of H2O = 0.107485
min of H2O = 0
smoothSolver:  Solving for CH4, Initial residual = 0.00748072, Final residual = 8.38448e-08, No Iterations 8
max of CH4 = 1
min of CH4 = 0
smoothSolver:  Solving for CO2, Initial residual = 0.0112185, Final residual = 5.97403e-08, No Iterations 9
max of CO2 = 0.131382
min of CO2 = 0
max of N2 = 0.76699
min of N2 = 0
DILUPBiCG:  Solving for hs, Initial residual = 0.012493, Final residual = 9.56548e-08, No Iterations 3
GAMG:  Solving for p_rgh, Initial residual = 0.195692, Final residual = 0.00153983, No Iterations 6
diagonal:  Solving for rho, Initial residual = 0, Final residual = 0, No Iterations 0
time step continuity errors : sum local = 9.48513e-06, global = -1.52049e-06, cumulative = 0.000192305
GAMG:  Solving for p_rgh, Initial residual = 0.119703, Final residual = 5.23895e-08, No Iterations 19
diagonal:  Solving for rho, Initial residual = 0, Final residual = 0, No Iterations 0
time step continuity errors : sum local = 1.67729e-10, global = -7.05931e-11, cumulative = 0.000192305
smoothSolver:  Solving for k, Initial residual = 0.0223355, Final residual = 9.07729e-08, No Iterations 7
ExecutionTime = 0.22 s  ClockTime = 0 s

Courant Number mean: 0.180203 max: 0.612005
deltaT = 0.000157826
Time = 0.00517737

diagonal:  Solving for rho, Initial residual = 0, Final residual = 0, No Iterations 0
smoothSolver:  Solving for Ux, Initial residual = 0.0219917, Final residual = 4.83144e-08, No Iterations 10
smoothSolver:  Solving for Uy, Initial residual = 0.0152074, Final residual = 6.98721e-08, No Iterations 10
smoothSolver:  Solving for O2, Initial residual = 0.00723084, Final residual = 4.4799e-08, No Iterations 10
max of O2 = 0.23301
min of O2 = 0
smoothSolver:  Solving for H2O, Initial residual = 0.0124294, Final residual = 6.23124e-08, No Iterations 10
max of H2O = 0.106797
min of H2O = 0
smoothSolver:  Solving for CH4, Initial residual = 0.00800366, Final residual = 5.77736e-08, No Iterations 9
max of CH4 = 1
min of CH4 = 0
smoothSolver:  Solving for CO2, Initial residual = 0.0124498, Final residual = 5.21797e-08, No Iterations 10
max of CO2 = 0.130595
min of CO2 = 0
max of N2 = 0.76699
min of N2 = 0
DILUPBiCG:  Solving for hs, Initial residual = 0.0139417, Final residual = 1.14562e-08, No Iterations 4
GAMG:  Solving for p_rgh, Initial residual = 0.306722, Final residual = 0.00226887, No Iterations 6
diagonal:  Solving for rho, Initial residual = 0, Final residual = 0, No Iterations 0
time step continuity errors : sum local = 8.05668e-06, global = 3.47905e-06, cumulative = 0.000195784
GAMG:  Solving for p_rgh, Initial residual = 0.0493317, Final residual = 5.83761e-08, No Iterations 18
diagonal:  Solving for rho, Initial residual = 0, Final residual = 0, No Iterations 0
time step continuity errors : sum local = 3.99264e-10, global = -1.75079e-10, cumulative = 0.000195784
smoothSolver:  Solving for k, Initial residual = 0.0209917, Final residual = 4.07584e-08, No Iterations 8
ExecutionTime = 0.23 s  ClockTime = 0 s

Courant Number mean: 0.20901 max: 0.695857
deltaT = 0.000180011
Time = 0.00535738

diagonal:  Solving for rho, Initial residual = 0, Final residual = 0, No Iterations 0
smoothSolver:  Solving for Ux, Initial residual = 0.0330481, Final residual = 7.13316e-08, No Iterations 12
smoothSolver:  Solving for Uy, Initial residual = 0.0170065, Final residual = 6.92682e-08, No Iterations 11
smoothSolver:  Solving for O2, Initial residual = 0.00817891, Final residual = 5.12023e-08, No Iterations 11
max of O2 = 0.23301
min of O2 = 0
smoothSolver:  Solving for H2O, Initial residual = 0.0138338, Final residual = 9.58025e-08, No Iterations 11
max of H2O = 0.106107
min of H2O = 0
smoothSolver:  Solving for CH4, Initial residual = 0.00816703, Final residual = 4.25507e-08, No Iterations 10
max of CH4 = 1
min of CH4 = 0
smoothSolver:  Solving for CO2, Initial residual = 0.0137993, Final residual = 7.53631e-08, No Iterations 11
max of CO2 = 0.129821
min of CO2 = 0
max of N2 = 0.76699
min of N2 = 0
DILUPBiCG:  Solving for hs, Initial residual = 0.0151042, Final residual = 9.24226e-09, No Iterations 4
GAMG:  Solving for p_rgh, Initial residual = 0.120364, Final residual = 0.000779416, No Iterations 6
diagonal:  Solving for rho, Initial residual = 0, Final residual = 0, No Iterations 0
time step continuity errors : sum local = 5.84657e-06, global = 2.66208e-06, cumulative = 0.000198446
GAMG:  Solving for p_rgh, Initial residual = 0.0257234, Final residual = 9.8046e-08, No Iterations 17
diagonal:  Solving for rho, Initial residual = 0, Final residual = 0, No Iterations 0
time step continuity errors : sum local = 8.93425e-10, global = 2.12619e-10, cumulative = 0.000198446
smoothSolver:  Solving for k, Initial residual = 0.0204094, Final residual = 7.02626e-08, No Iterations 8
ExecutionTime = 0.24 s  ClockTime = 0 s

Courant Number mean: 0.237975 max: 0.77462
deltaT = 0.000202921
Time = 0.0055603

diagonal:  Solving for rho, Initial residual = 0, Final residual = 0, No Iterations 0
smoothSolver:  Solving for Ux, Initial residual = 0.0413689, Final residual = 9.80049e-08, No Iterations 14
smoothSolver:  Solving for Uy, Initial residual = 0.0205356, Final residual = 7.20677e-08, No Iterations 13
smoothSolver:  Solving for O2, Initial residual = 0.00826497, Final residual = 9.34332e-08, No Iterations 12
max of O2 = 0.23301
min of O2 = 0
smoothSolver:  Solving for H2O, Initial residual = 0.0136776, Final residual = 6.7079e-08, No Iterations 14
max of H2O = 0.105824
min of H2O = 0
smoothSolver:  Solving for CH4, Initial residual = 0.00834271, Final residual = 5.08509e-08, No Iterations 11
max of CH4 = 1
min of CH4 = 0
smoothSolver:  Solving for CO2, Initial residual = 0.0136443, Final residual = 9.20457e-08, No Iterations 13
max of CO2 = 0.129449
min of CO2 = 0
max of N2 = 0.76699
min of N2 = 0
DILUPBiCG:  Solving for hs, Initial residual = 0.0157477, Final residual = 1.37201e-08, No Iterations 4
GAMG:  Solving for p_rgh, Initial residual = 0.096927, Final residual = 0.000550515, No Iterations 7
diagonal:  Solving for rho, Initial residual = 0, Final residual = 0, No Iterations 0
time step continuity errors : sum local = 6.12205e-06, global = -2.55656e-06, cumulative = 0.000195889
GAMG:  Solving for p_rgh, Initial residual = 0.0694016, Final residual = 9.72548e-08, No Iterations 19
diagonal:  Solving for rho, Initial residual = 0, Final residual = 0, No Iterations 0
time step continuity errors : sum local = 7.30335e-10, global = 2.933e-10, cumulative = 0.00019589
smoothSolver:  Solving for k, Initial residual = 0.0201324, Final residual = 4.04761e-08, No Iterations 9
ExecutionTime = 0.25 s  ClockTime = 0 s

Courant Number mean: 0.261947 max: 0.832974
deltaT = 0.000226733
Time = 0.00578703

diagonal:  Solving for rho, Initial residual = 0, Final residual = 0, No Iterations 0
smoothSolver:  Solving for Ux, Initial residual = 0.0453946, Final residual = 5.77299e-08, No Iterations 17
smoothSolver:  Solving for Uy, Initial residual = 0.01746, Final residual = 5.90401e-08, No Iterations 15
smoothSolver:  Solving for O2, Initial residual = 0.00869609, Final residual = 9.1086e-08, No Iterations 14
max of O2 = 0.23301
min of O2 = 0
smoothSolver:  Solving for H2O, Initial residual = 0.0144478, Final residual = 7.28434e-08, No Iterations 17
max of H2O = 0.106157
min of H2O = 0
smoothSolver:  Solving for CH4, Initial residual = 0.00846592, Final residual = 5.90062e-08, No Iterations 12
max of CH4 = 1
min of CH4 = 0
smoothSolver:  Solving for CO2, Initial residual = 0.0144763, Final residual = 8.14239e-08, No Iterations 16
max of CO2 = 0.129891
min of CO2 = 0
max of N2 = 0.76699
min of N2 = 0
DILUPBiCG:  Solving for hs, Initial residual = 0.0163565, Final residual = 2.24831e-08, No Iterations 4
GAMG:  Solving for p_rgh, Initial residual = 0.147561, Final residual = 0.000921023, No Iterations 6
diagonal:  Solving for rho, Initial residual = 0, Final residual = 0, No Iterations 0
time step continuity errors : sum local = 9.82246e-06, global = -3.69132e-06, cumulative = 0.000192198
GAMG:  Solving for p_rgh, Initial residual = 0.123306, Final residual = 5.04467e-08, No Iterations 18
diagonal:  Solving for rho, Initial residual = 0, Final residual = 0, No Iterations 0
time step continuity errors : sum local = 3.01686e-10, global = 5.10846e-11, cumulative = 0.000192198
smoothSolver:  Solving for k, Initial residual = 0.0199764, Final residual = 8.01611e-08, No Iterations 9
ExecutionTime = 0.26 s  ClockTime = 0 s

Courant Number mean: 0.288289 max: 0.869053
deltaT = 0.000252646
Time = 0.00603968

diagonal:  Solving for rho, Initial residual = 0, Final residual = 0, No Iterations 0
smoothSolver:  Solving for Ux, Initial residual = 0.0401204, Final residual = 7.02903e-08, No Iterations 20
smoothSolver:  Solving for Uy, Initial residual = 0.0179772, Final residual = 5.55355e-08, No Iterations 19
smoothSolver:  Solving for O2, Initial residual = 0.00888575, Final residual = 8.59425e-08, No Iterations 16
max of O2 = 0.23301
min of O2 = 0
smoothSolver:  Solving for H2O, Initial residual = 0.014862, Final residual = 9.44983e-08, No Iterations 19
max of H2O = 0.106032
min of H2O = 0
smoothSolver:  Solving for CH4, Initial residual = 0.00887122, Final residual = 7.92452e-08, No Iterations 13
max of CH4 = 1
min of CH4 = 0
smoothSolver:  Solving for CO2, Initial residual = 0.0148716, Final residual = 9.73558e-08, No Iterations 18
max of CO2 = 0.129801
min of CO2 = 0
max of N2 = 0.76699
min of N2 = 0
DILUPBiCG:  Solving for hs, Initial residual = 0.0166466, Final residual = 3.1603e-08, No Iterations 4
GAMG:  Solving for p_rgh, Initial residual = 0.243428, Final residual = 0.00225533, No Iterations 5
diagonal:  Solving for rho, Initial residual = 0, Final residual = 0, No Iterations 0
time step continuity errors : sum local = 1.8182e-05, global = 2.72618e-06, cumulative = 0.000194925
GAMG:  Solving for p_rgh, Initial residual = 0.111714, Final residual = 5.69629e-08, No Iterations 17
diagonal:  Solving for rho, Initial residual = 0, Final residual = 0, No Iterations 0
time step continuity errors : sum local = 3.74999e-10, global = -1.57744e-10, cumulative = 0.000194924
smoothSolver:  Solving for k, Initial residual = 0.019799, Final residual = 5.73188e-08, No Iterations 10
ExecutionTime = 0.27 s  ClockTime = 0 s

Courant Number mean: 0.317681 max: 0.898566
deltaT = 0.000280002
Time = 0.00631968

diagonal:  Solving for rho, Initial residual = 0, Final residual = 0, No Iterations 0
smoothSolver:  Solving for Ux, Initial residual = 0.0371797, Final residual = 7.99487e-08, No Iterations 21
smoothSolver:  Solving for Uy, Initial residual = 0.0208938, Final residual = 8.35512e-08, No Iterations 21
smoothSolver:  Solving for O2, Initial residual = 0.00935891, Final residual = 9.65914e-08, No Iterations 17
max of O2 = 0.23301
min of O2 = 0
smoothSolver:  Solving for H2O, Initial residual = 0.0155166, Final residual = 7.55937e-08, No Iterations 21
max of H2O = 0.106188
min of H2O = 0
smoothSolver:  Solving for CH4, Initial residual = 0.00932759, Final residual = 8.20769e-08, No Iterations 14
max of CH4 = 1
min of CH4 = 0
smoothSolver:  Solving for CO2, Initial residual = 0.0154407, Final residual = 7.39643e-08, No Iterations 20
max of CO2 = 0.130005
min of CO2 = 0
max of N2 = 0.76699
min of N2 = 0
DILUPBiCG:  Solving for hs, Initial residual = 0.0175734, Final residual = 6.60828e-08, No Iterations 4
GAMG:  Solving for p_rgh, Initial residual = 0.288998, Final residual = 0.00283823, No Iterations 6
diagonal:  Solving for rho, Initial residual = 0, Final residual = 0, No Iterations 0
time step continuity errors : sum local = 2.18468e-05, global = -5.54745e-06, cumulative = 0.000189377
GAMG:  Solving for p_rgh, Initial residual = 0.0879724, Final residual = 8.74868e-08, No Iterations 19
diagonal:  Solving for rho, Initial residual = 0, Final residual = 0, No Iterations 0
time step continuity errors : sum local = 8.0968e-10, global = -3.41559e-10, cumulative = 0.000189377
smoothSolver:  Solving for k, Initial residual = 0.0199518, Final residual = 4.3546e-08, No Iterations 11
ExecutionTime = 0.29 s  ClockTime = 0 s

Courant Number mean: 0.3503 max: 0.937777
deltaT = 0.000297145
Time = 0.00661683

diagonal:  Solving for rho, Initial residual = 0, Final residual = 0, No Iterations 0
smoothSolver:  Solving for Ux, Initial residual = 0.0329375, Final residual = 7.22695e-08, No Iterations 20
smoothSolver:  Solving for Uy, Initial residual = 0.0169801, Final residual = 9.11734e-08, No Iterations 20
smoothSolver:  Solving for O2, Initial residual = 0.00958464, Final residual = 7.10541e-08, No Iterations 17
max of O2 = 0.23301
min of O2 = 0
smoothSolver:  Solving for H2O, Initial residual = 0.0157824, Final residual = 9.64273e-08, No Iterations 19
max of H2O = 0.106646
min of H2O = 0
smoothSolver:  Solving for CH4, Initial residual = 0.00924327, Final residual = 9.27062e-08, No Iterations 14
max of CH4 = 1
min of CH4 = 0
smoothSolver:  Solving for CO2, Initial residual = 0.015821, Final residual = 6.43087e-08, No Iterations 19
max of CO2 = 0.130558
min of CO2 = 0
max of N2 = 0.76699
min of N2 = 0
DILUPBiCG:  Solving for hs, Initial residual = 0.0175632, Final residual = 1.91759e-09, No Iterations 5
GAMG:  Solving for p_rgh, Initial residual = 0.224335, Final residual = 0.00118693, No Iterations 6
diagonal:  Solving for rho, Initial residual = 0, Final residual = 0, No Iterations 0
time step continuity errors : sum local = 1.02761e-05, global = 4.42385e-06, cumulative = 0.000193801
GAMG:  Solving for p_rgh, Initial residual = 0.0573986, Final residual = 9.30493e-08, No Iterations 19
diagonal:  Solving for rho, Initial residual = 0, Final residual = 0, No Iterations 0
time step continuity errors : sum local = 1.06913e-09, global = 2.65725e-10, cumulative = 0.000193801
smoothSolver:  Solving for k, Initial residual = 0.0198142, Final residual = 6.37771e-08, No Iterations 11
ExecutionTime = 0.3 s  ClockTime = 0 s

Courant Number mean: 0.367372 max: 0.947948
deltaT = 0.000312109
Time = 0.00692894

diagonal:  Solving for rho, Initial residual = 0, Final residual = 0, No Iterations 0
smoothSolver:  Solving for Ux, Initial residual = 0.0347945, Final residual = 9.2521e-08, No Iterations 21
smoothSolver:  Solving for Uy, Initial residual = 0.0151796, Final residual = 7.24087e-08, No Iterations 20
smoothSolver:  Solving for O2, Initial residual = 0.00964049, Final residual = 7.0987e-08, No Iterations 17
max of O2 = 0.23301
min of O2 = 0
smoothSolver:  Solving for H2O, Initial residual = 0.0158821, Final residual = 6.1369e-08, No Iterations 19
max of H2O = 0.107023
min of H2O = 0
smoothSolver:  Solving for CH4, Initial residual = 0.00896772, Final residual = 6.07186e-08, No Iterations 15
max of CH4 = 1
min of CH4 = 0
smoothSolver:  Solving for CO2, Initial residual = 0.0158641, Final residual = 7.23712e-08, No Iterations 18
max of CO2 = 0.131044
min of CO2 = 0
max of N2 = 0.76699
min of N2 = 0
DILUPBiCG:  Solving for hs, Initial residual = 0.0175554, Final residual = 2.17356e-09, No Iterations 5
GAMG:  Solving for p_rgh, Initial residual = 0.132285, Final residual = 0.000853621, No Iterations 5
diagonal:  Solving for rho, Initial residual = 0, Final residual = 0, No Iterations 0
time step continuity errors : sum local = 9.63631e-06, global = -2.50493e-06, cumulative = 0.000191296
GAMG:  Solving for p_rgh, Initial residual = 0.0388174, Final residual = 9.23212e-08, No Iterations 17
diagonal:  Solving for rho, Initial residual = 0, Final residual = 0, No Iterations 0
time step continuity errors : sum local = 1.10794e-09, global = 2.74318e-10, cumulative = 0.000191296
smoothSolver:  Solving for k, Initial residual = 0.0196737, Final residual = 8.16116e-08, No Iterations 11
ExecutionTime = 0.31 s  ClockTime = 0 s

Courant Number mean: 0.37733 max: 0.944839
deltaT = 0.000328787
Time = 0.00725772

diagonal:  Solving for rho, Initial residual = 0, Final residual = 0, No Iterations 0
smoothSolver:  Solving for Ux, Initial residual = 0.0379155, Final residual = 6.8501e-08, No Iterations 23
smoothSolver:  Solving for Uy, Initial residual = 0.014641, Final residual = 9.86253e-08, No Iterations 20
smoothSolver:  Solving for O2, Initial residual = 0.0094066, Final residual = 5.31165e-08, No Iterations 18
max of O2 = 0.23301
min of O2 = 0
smoothSolver:  Solving for H2O, Initial residual = 0.0154739, Final residual = 9.67809e-08, No Iterations 18
max of H2O = 0.1077
min of H2O = 0
smoothSolver:  Solving for CH4, Initial residual = 0.00878214, Final residual = 9.64756e-08, No Iterations 15
max of CH4 = 1
min of CH4 = 0
smoothSolver:  Solving for CO2, Initial residual = 0.0154782, Final residual = 7.40172e-08, No Iterations 18
max of CO2 = 0.131838
min of CO2 = 0
max of N2 = 0.76699
min of N2 = 0
DILUPBiCG:  Solving for hs, Initial residual = 0.017275, Final residual = 2.91597e-09, No Iterations 5
GAMG:  Solving for p_rgh, Initial residual = 0.100996, Final residual = 0.000918949, No Iterations 5
diagonal:  Solving for rho, Initial residual = 0, Final residual = 0, No Iterations 0
time step continuity errors : sum local = 1.19243e-05, global = 1.83135e-06, cumulative = 0.000193127
GAMG:  Solving for p_rgh, Initial residual = 0.0443227, Final residual = 6.68617e-08, No Iterations 18
diagonal:  Solving for rho, Initial residual = 0, Final residual = 0, No Iterations 0
time step continuity errors : sum local = 6.59123e-10, global = 6.27302e-11, cumulative = 0.000193128
smoothSolver:  Solving for k, Initial residual = 0.0195777, Final residual = 4.95242e-08, No Iterations 12
ExecutionTime = 0.32 s  ClockTime = 0 s

Courant Number mean: 0.384411 max: 0.966887
deltaT = 0.000339224
Time = 0.00759695

diagonal:  Solving for rho, Initial residual = 0, Final residual = 0, No Iterations 0
smoothSolver:  Solving for Ux, Initial residual = 0.0379132, Final residual = 6.59773e-08, No Iterations 22
smoothSolver:  Solving for Uy, Initial residual = 0.0136125, Final residual = 8.97114e-08, No Iterations 20
smoothSolver:  Solving for O2, Initial residual = 0.0090855, Final residual = 6.77951e-08, No Iterations 18
max of O2 = 0.23301
min of O2 = 0
smoothSolver:  Solving for H2O, Initial residual = 0.0149905, Final residual = 7.84714e-08, No Iterations 18
max of H2O = 0.108106
min of H2O = 0
smoothSolver:  Solving for CH4, Initial residual = 0.00850613, Final residual = 6.50305e-08, No Iterations 16
max of CH4 = 1
min of CH4 = 0
smoothSolver:  Solving for CO2, Initial residual = 0.0149853, Final residual = 6.66712e-08, No Iterations 18
max of CO2 = 0.132307
min of CO2 = 0
max of N2 = 0.76699
min of N2 = 0
DILUPBiCG:  Solving for hs, Initial residual = 0.0165187, Final residual = 3.15143e-09, No Iterations 5
GAMG:  Solving for p_rgh, Initial residual = 0.113045, Final residual = 0.000937226, No Iterations 6
diagonal:  Solving for rho, Initial residual = 0, Final residual = 0, No Iterations 0
time step continuity errors : sum local = 1.11184e-05, global = -2.92147e-06, cumulative = 0.000190206
GAMG:  Solving for p_rgh, Initial residual = 0.0511061, Final residual = 4.89816e-08, No Iterations 19
diagonal:  Solving for rho, Initial residual = 0, Final residual = 0, No Iterations 0
time step continuity errors : sum local = 4.15667e-10, global = -1.84876e-10, cumulative = 0.000190206
smoothSolver:  Solving for k, Initial residual = 0.0191045, Final residual = 6.98004e-08, No Iterations 12
ExecutionTime = 0.33 s  ClockTime = 0 s

Courant Number mean: 0.3868 max: 0.956545
deltaT = 0.000353359
Time = 0.00795031

diagonal:  Solving for rho, Initial residual = 0, Final residual = 0, No Iterations 0
smoothSolver:  Solving for Ux, Initial residual = 0.035176, Final residual = 6.59066e-08, No Iterations 21
smoothSolver:  Solving for Uy, Initial residual = 0.0158196, Final residual = 8.04484e-08, No Iterations 21
smoothSolver:  Solving for O2, Initial residual = 0.00890264, Final residual = 5.68039e-08, No Iterations 19
max of O2 = 0.23301
min of O2 = 0
smoothSolver:  Solving for H2O, Initial residual = 0.0148422, Final residual = 5.72415e-08, No Iterations 19
max of H2O = 0.108786
min of H2O = 0
smoothSolver:  Solving for CH4, Initial residual = 0.0084674, Final residual = 9.97502e-08, No Iterations 16
max of CH4 = 1
min of CH4 = 0
smoothSolver:  Solving for CO2, Initial residual = 0.0148692, Final residual = 9.99079e-08, No Iterations 18
max of CO2 = 0.133154
min of CO2 = 0
max of N2 = 0.76699
min of N2 = 0
DILUPBiCG:  Solving for hs, Initial residual = 0.0163413, Final residual = 6.5672e-09, No Iterations 5
GAMG:  Solving for p_rgh, Initial residual = 0.174438, Final residual = 0.00167044, No Iterations 5
diagonal:  Solving for rho, Initial residual = 0, Final residual = 0, No Iterations 0
time step continuity errors : sum local = 1.57945e-05, global = 5.07303e-06, cumulative = 0.000195279
GAMG:  Solving for p_rgh, Initial residual = 0.0646725, Final residual = 8.98478e-08, No Iterations 18
diagonal:  Solving for rho, Initial residual = 0, Final residual = 0, No Iterations 0
time step continuity errors : sum local = 8.34177e-10, global = 2.15589e-10, cumulative = 0.000195279
smoothSolver:  Solving for k, Initial residual = 0.0189496, Final residual = 4.74887e-08, No Iterations 13
ExecutionTime = 0.34 s  ClockTime = 0 s

Courant Number mean: 0.395341 max: 0.957376
deltaT = 0.000368857
Time = 0.00831916

diagonal:  Solving for rho, Initial residual = 0, Final residual = 0, No Iterations 0
smoothSolver:  Solving for Ux, Initial residual = 0.032165, Final residual = 6.00479e-08, No Iterations 21
smoothSolver:  Solving for Uy, Initial residual = 0.0152365, Final residual = 8.69672e-08, No Iterations 21
smoothSolver:  Solving for O2, Initial residual = 0.00871286, Final residual = 5.54488e-08, No Iterations 20
max of O2 = 0.23301
min of O2 = 0
smoothSolver:  Solving for H2O, Initial residual = 0.0146268, Final residual = 5.45575e-08, No Iterations 20
max of H2O = 0.109183
min of H2O = 0
smoothSolver:  Solving for CH4, Initial residual = 0.00847206, Final residual = 9.59349e-08, No Iterations 17
max of CH4 = 1
min of CH4 = 0
smoothSolver:  Solving for CO2, Initial residual = 0.014572, Final residual = 9.07216e-08, No Iterations 19
max of CO2 = 0.133607
min of CO2 = 0
max of N2 = 0.76699
min of N2 = 0
DILUPBiCG:  Solving for hs, Initial residual = 0.0161494, Final residual = 1.20437e-08, No Iterations 5
GAMG:  Solving for p_rgh, Initial residual = 0.161708, Final residual = 0.00100484, No Iterations 6
diagonal:  Solving for rho, Initial residual = 0, Final residual = 0, No Iterations 0
time step continuity errors : sum local = 9.37778e-06, global = -2.06583e-06, cumulative = 0.000193213
GAMG:  Solving for p_rgh, Initial residual = 0.0505608, Final residual = 4.30849e-08, No Iterations 18
diagonal:  Solving for rho, Initial residual = 0, Final residual = 0, No Iterations 0
time step continuity errors : sum local = 5.12374e-10, global = -2.30809e-10, cumulative = 0.000193213
smoothSolver:  Solving for k, Initial residual = 0.0189989, Final residual = 7.07261e-08, No Iterations 13
ExecutionTime = 0.36 s  ClockTime = 0 s

Courant Number mean: 0.400416 max: 0.962269
deltaT = 0.000382393
Time = 0.00870156

diagonal:  Solving for rho, Initial residual = 0, Final residual = 0, No Iterations 0
smoothSolver:  Solving for Ux, Initial residual = 0.0333346, Final residual = 6.44554e-08, No Iterations 23
smoothSolver:  Solving for Uy, Initial residual = 0.011816, Final residual = 7.58304e-08, No Iterations 21
smoothSolver:  Solving for O2, Initial residual = 0.00857267, Final residual = 8.2418e-08, No Iterations 20
max of O2 = 0.23301
min of O2 = 0
smoothSolver:  Solving for H2O, Initial residual = 0.0145667, Final residual = 8.39701e-08, No Iterations 20
max of H2O = 0.109615
min of H2O = 0
smoothSolver:  Solving for CH4, Initial residual = 0.00830023, Final residual = 6.85479e-08, No Iterations 18
max of CH4 = 1
min of CH4 = 0
smoothSolver:  Solving for CO2, Initial residual = 0.0146063, Final residual = 7.61423e-08, No Iterations 20
max of CO2 = 0.134179
min of CO2 = 0
max of N2 = 0.76699
min of N2 = 0
DILUPBiCG:  Solving for hs, Initial residual = 0.015872, Final residual = 1.47972e-08, No Iterations 5
GAMG:  Solving for p_rgh, Initial residual = 0.0918755, Final residual = 0.000713713, No Iterations 5
diagonal:  Solving for rho, Initial residual = 0, Final residual = 0, No Iterations 0
time step continuity errors : sum local = 8.20397e-06, global = -2.17799e-06, cumulative = 0.000191035
GAMG:  Solving for p_rgh, Initial residual = 0.029745, Final residual = 9.3865e-08, No Iterations 18
diagonal:  Solving for rho, Initial residual = 0, Final residual = 0, No Iterations 0
time step continuity errors : sum local = 1.18162e-09, global = -5.49028e-10, cumulative = 0.000191035
smoothSolver:  Solving for k, Initial residual = 0.01913, Final residual = 9.57201e-08, No Iterations 13
ExecutionTime = 0.37 s  ClockTime = 0 s

Courant Number mean: 0.398997 max: 0.958528
deltaT = 0.0003971
Time = 0.00909866

diagonal:  Solving for rho, Initial residual = 0, Final residual = 0, No Iterations 0
smoothSolver:  Solving for Ux, Initial residual = 0.0344076, Final residual = 6.66347e-08, No Iterations 23
smoothSolver:  Solving for Uy, Initial residual = 0.0107297, Final residual = 6.58103e-08, No Iterations 20
smoothSolver:  Solving for O2, Initial residual = 0.0083821, Final residual = 7.95632e-08, No Iterations 21
max of O2 = 0.23301
min of O2 = 0
smoothSolver:  Solving for H2O, Initial residual = 0.0143022, Final residual = 8.0112e-08, No Iterations 21
max of H2O = 0.110071
min of H2O = 0
smoothSolver:  Solving for CH4, Initial residual = 0.00814062, Final residual = 6.27355e-08, No Iterations 19
max of CH4 = 1
min of CH4 = 0
smoothSolver:  Solving for CO2, Initial residual = 0.0142985, Final residual = 7.2524e-08, No Iterations 21
max of CO2 = 0.134714
min of CO2 = 0
max of N2 = 0.76699
min of N2 = 0
DILUPBiCG:  Solving for hs, Initial residual = 0.0156816, Final residual = 2.897e-08, No Iterations 5
GAMG:  Solving for p_rgh, Initial residual = 0.0705895, Final residual = 0.00052643, No Iterations 5
diagonal:  Solving for rho, Initial residual = 0, Final residual = 0, No Iterations 0
time step continuity errors : sum local = 6.78175e-06, global = 1.03961e-06, cumulative = 0.000192074
GAMG:  Solving for p_rgh, Initial residual = 0.0226857, Final residual = 4.62074e-08, No Iterations 18
diagonal:  Solving for rho, Initial residual = 0, Final residual = 0, No Iterations 0
time step continuity errors : sum local = 4.85579e-10, global = 2.28139e-10, cumulative = 0.000192074
smoothSolver:  Solving for k, Initial residual = 0.0192711, Final residual = 6.44744e-08, No Iterations 14
ExecutionTime = 0.38 s  ClockTime = 0 s

Courant Number mean: 0.39675 max: 0.946512
deltaT = 0.000417361
Time = 0.00951602

diagonal:  Solving for rho, Initial residual = 0, Final residual = 0, No Iterations 0
smoothSolver:  Solving for Ux, Initial residual = 0.0377746, Final residual = 8.86856e-08, No Iterations 23
smoothSolver:  Solving for Uy, Initial residual = 0.0113685, Final residual = 6.47945e-08, No Iterations 22
smoothSolver:  Solving for O2, Initial residual = 0.00812385, Final residual = 8.3875e-08, No Iterations 22
max of O2 = 0.23301
min of O2 = 0
smoothSolver:  Solving for H2O, Initial residual = 0.0141655, Final residual = 8.66002e-08, No Iterations 22
max of H2O = 0.110119
min of H2O = 0
smoothSolver:  Solving for CH4, Initial residual = 0.00820227, Final residual = 6.61468e-08, No Iterations 20
max of CH4 = 1
min of CH4 = 0
smoothSolver:  Solving for CO2, Initial residual = 0.0141834, Final residual = 7.83635e-08, No Iterations 22
max of CO2 = 0.134784
min of CO2 = 0
max of N2 = 0.76699
min of N2 = 0
DILUPBiCG:  Solving for hs, Initial residual = 0.0154031, Final residual = 5.01438e-08, No Iterations 5
GAMG:  Solving for p_rgh, Initial residual = 0.0956178, Final residual = 0.000709129, No Iterations 5
diagonal:  Solving for rho, Initial residual = 0, Final residual = 0, No Iterations 0
time step continuity errors : sum local = 8.67759e-06, global = 3.61037e-07, cumulative = 0.000192435
GAMG:  Solving for p_rgh, Initial residual = 0.0315059, Final residual = 5.18297e-08, No Iterations 18
diagonal:  Solving for rho, Initial residual = 0, Final residual = 0, No Iterations 0
time step continuity errors : sum local = 5.05852e-10, global = 2.58389e-10, cumulative = 0.000192436
smoothSolver:  Solving for k, Initial residual = 0.0196, Final residual = 9.58162e-08, No Iterations 14
ExecutionTime = 0.39 s  ClockTime = 0 s

Courant Number mean: 0.398581 max: 0.938268
deltaT = 0.000440043
Time = 0.00995606

diagonal:  Solving for rho, Initial residual = 0, Final residual = 0, No Iterations 0
smoothSolver:  Solving for Ux, Initial residual = 0.0419242, Final residual = 9.28077e-08, No Iterations 24
smoothSolver:  Solving for Uy, Initial residual = 0.0134299, Final residual = 7.08833e-08, No Iterations 24
smoothSolver:  Solving for O2, Initial residual = 0.00810124, Final residual = 8.85148e-08, No Iterations 23
max of O2 = 0.23301
min of O2 = 0
smoothSolver:  Solving for H2O, Initial residual = 0.014265, Final residual = 9.05047e-08, No Iterations 23
max of H2O = 0.11055
min of H2O = 0
smoothSolver:  Solving for CH4, Initial residual = 0.00829513, Final residual = 6.73601e-08, No Iterations 21
max of CH4 = 1
min of CH4 = 0
smoothSolver:  Solving for CO2, Initial residual = 0.0142648, Final residual = 8.21316e-08, No Iterations 23
max of CO2 = 0.135306
min of CO2 = 0
max of N2 = 0.76699
min of N2 = 0
DILUPBiCG:  Solving for hs, Initial residual = 0.0153399, Final residual = 1.2076e-09, No Iterations 6
GAMG:  Solving for p_rgh, Initial residual = 0.121385, Final residual = 0.000729285, No Iterations 6
diagonal:  Solving for rho, Initial residual = 0, Final residual = 0, No Iterations 0
time step continuity errors : sum local = 8.11235e-06, global = 3.48203e-06, cumulative = 0.000195918
GAMG:  Solving for p_rgh, Initial residual = 0.0399635, Final residual = 5.65938e-08, No Iterations 19
diagonal:  Solving for rho, Initial residual = 0, Final residual = 0, No Iterations 0
time step continuity errors : sum local = 6.36005e-10, global = -2.89492e-10, cumulative = 0.000195917
smoothSolver:  Solving for k, Initial residual = 0.0200553, Final residual = 7.16575e-08, No Iterations 15
ExecutionTime = 0.4 s  ClockTime = 0 s

Courant Number mean: 0.402446 max: 0.926898
deltaT = 0.000471105
Time = 0.0104272

diagonal:  Solving for rho, Initial residual = 0, Final residual = 0, No Iterations 0
smoothSolver:  Solving for Ux, Initial residual = 0.0431045, Final residual = 9.66031e-08, No Iterations 25
smoothSolver:  Solving for Uy, Initial residual = 0.0142429, Final residual = 6.73925e-08, No Iterations 25
smoothSolver:  Solving for O2, Initial residual = 0.00817925, Final residual = 6.90114e-08, No Iterations 25
max of O2 = 0.23301
min of O2 = 0
smoothSolver:  Solving for H2O, Initial residual = 0.014646, Final residual = 7.07075e-08, No Iterations 25
max of H2O = 0.110652
min of H2O = 0
smoothSolver:  Solving for CH4, Initial residual = 0.00848273, Final residual = 8.34623e-08, No Iterations 22
max of CH4 = 1
min of CH4 = 0
smoothSolver:  Solving for CO2, Initial residual = 0.0146387, Final residual = 6.38979e-08, No Iterations 25
max of CO2 = 0.135413
min of CO2 = 0
max of N2 = 0.76699
min of N2 = 0
DILUPBiCG:  Solving for hs, Initial residual = 0.0156621, Final residual = 6.91595e-08, No Iterations 5
GAMG:  Solving for p_rgh, Initial residual = 0.12312, Final residual = 0.000819405, No Iterations 6
diagonal:  Solving for rho, Initial residual = 0, Final residual = 0, No Iterations 0
time step continuity errors : sum local = 9.2821e-06, global = 3.10104e-06, cumulative = 0.000199018
GAMG:  Solving for p_rgh, Initial residual = 0.0392282, Final residual = 9.266e-08, No Iterations 17
diagonal:  Solving for rho, Initial residual = 0, Final residual = 0, No Iterations 0
time step continuity errors : sum local = 1.14729e-09, global = 3.0641e-10, cumulative = 0.000199019
smoothSolver:  Solving for k, Initial residual = 0.0209043, Final residual = 5.89894e-08, No Iterations 16
ExecutionTime = 0.42 s  ClockTime = 0 s

Courant Number mean: 0.409222 max: 0.922855
deltaT = 0.000507344
Time = 0.0109345

diagonal:  Solving for rho, Initial residual = 0, Final residual = 0, No Iterations 0
smoothSolver:  Solving for Ux, Initial residual = 0.0479117, Final residual = 7.8463e-08, No Iterations 30
smoothSolver:  Solving for Uy, Initial residual = 0.0126435, Final residual = 9.24757e-08, No Iterations 23
smoothSolver:  Solving for O2, Initial residual = 0.00819096, Final residual = 9.91052e-08, No Iterations 26
max of O2 = 0.23301
min of O2 = 0
smoothSolver:  Solving for H2O, Initial residual = 0.0148683, Final residual = 6.50883e-08, No Iterations 27
max of H2O = 0.110529
min of H2O = 0
smoothSolver:  Solving for CH4, Initial residual = 0.00871793, Final residual = 7.16716e-08, No Iterations 24
max of CH4 = 1
min of CH4 = 0
smoothSolver:  Solving for CO2, Initial residual = 0.0148864, Final residual = 9.36122e-08, No Iterations 26
max of CO2 = 0.135319
min of CO2 = 0
max of N2 = 0.76699
min of N2 = 0
DILUPBiCG:  Solving for hs, Initial residual = 0.0158899, Final residual = 6.38515e-08, No Iterations 5
GAMG:  Solving for p_rgh, Initial residual = 0.0985493, Final residual = 0.000835046, No Iterations 5
diagonal:  Solving for rho, Initial residual = 0, Final residual = 0, No Iterations 0
time step continuity errors : sum local = 1.07462e-05, global = -2.09348e-06, cumulative = 0.000196925
GAMG:  Solving for p_rgh, Initial residual = 0.0298997, Final residual = 8.22042e-08, No Iterations 16
diagonal:  Solving for rho, Initial residual = 0, Final residual = 0, No Iterations 0
time step continuity errors : sum local = 9.63026e-10, global = -3.98918e-10, cumulative = 0.000196925
smoothSolver:  Solving for k, Initial residual = 0.0218421, Final residual = 9.1743e-08, No Iterations 16
ExecutionTime = 0.43 s  ClockTime = 0 s

Courant Number mean: 0.411804 max: 0.911501
deltaT = 0.000550218
Time = 0.0114847

diagonal:  Solving for rho, Initial residual = 0, Final residual = 0, No Iterations 0
smoothSolver:  Solving for Ux, Initial residual = 0.0544954, Final residual = 7.09189e-08, No Iterations 33
smoothSolver:  Solving for Uy, Initial residual = 0.0138049, Final residual = 9.16991e-08, No Iterations 25
smoothSolver:  Solving for O2, Initial residual = 0.00829562, Final residual = 9.75142e-08, No Iterations 28
max of O2 = 0.23301
min of O2 = 0
smoothSolver:  Solving for H2O, Initial residual = 0.0153278, Final residual = 9.9691e-08, No Iterations 28
max of H2O = 0.110569
min of H2O = 0
smoothSolver:  Solving for CH4, Initial residual = 0.00898785, Final residual = 6.93746e-08, No Iterations 26
max of CH4 = 1
min of CH4 = 0
smoothSolver:  Solving for CO2, Initial residual = 0.0152876, Final residual = 9.00587e-08, No Iterations 28
max of CO2 = 0.135382
min of CO2 = 0
max of N2 = 0.76699
min of N2 = 0
DILUPBiCG:  Solving for hs, Initial residual = 0.0160114, Final residual = 8.19355e-08, No Iterations 5
GAMG:  Solving for p_rgh, Initial residual = 0.0925313, Final residual = 0.000623614, No Iterations 5
diagonal:  Solving for rho, Initial residual = 0, Final residual = 0, No Iterations 0
time step continuity errors : sum local = 8.36845e-06, global = 1.31593e-06, cumulative = 0.000198241
GAMG:  Solving for p_rgh, Initial residual = 0.0279694, Final residual = 4.00329e-08, No Iterations 19
diagonal:  Solving for rho, Initial residual = 0, Final residual = 0, No Iterations 0
time step continuity errors : sum local = 4.77885e-10, global = -2.2677e-10, cumulative = 0.000198241
smoothSolver:  Solving for k, Initial residual = 0.0231542, Final residual = 7.98023e-08, No Iterations 17
ExecutionTime = 0.44 s  ClockTime = 0 s

Courant Number mean: 0.415601 max: 0.901741
deltaT = 0.000601801
Time = 0.0120865

diagonal:  Solving for rho, Initial residual = 0, Final residual = 0, No Iterations 0
smoothSolver:  Solving for Ux, Initial residual = 0.0591634, Final residual = 7.70228e-08, No Iterations 34
smoothSolver:  Solving for Uy, Initial residual = 0.0179736, Final residual = 9.68364e-08, No Iterations 30
smoothSolver:  Solving for O2, Initial residual = 0.00849096, Final residual = 7.50468e-08, No Iterations 31
max of O2 = 0.23301
min of O2 = 0
smoothSolver:  Solving for H2O, Initial residual = 0.0159892, Final residual = 7.65644e-08, No Iterations 31
max of H2O = 0.110462
min of H2O = 0
smoothSolver:  Solving for CH4, Initial residual = 0.00935725, Final residual = 7.43006e-08, No Iterations 28
max of CH4 = 1
min of CH4 = 0
smoothSolver:  Solving for CO2, Initial residual = 0.0159921, Final residual = 6.94605e-08, No Iterations 31
max of CO2 = 0.135213
min of CO2 = 0
max of N2 = 0.76699
min of N2 = 0
DILUPBiCG:  Solving for hs, Initial residual = 0.0163981, Final residual = 9.91708e-08, No Iterations 5
GAMG:  Solving for p_rgh, Initial residual = 0.135756, Final residual = 0.00133807, No Iterations 5
diagonal:  Solving for rho, Initial residual = 0, Final residual = 0, No Iterations 0
time step continuity errors : sum local = 1.84633e-05, global = 4.30268e-06, cumulative = 0.000202543
GAMG:  Solving for p_rgh, Initial residual = 0.0466765, Final residual = 4.23612e-08, No Iterations 17
diagonal:  Solving for rho, Initial residual = 0, Final residual = 0, No Iterations 0
time step continuity errors : sum local = 5.5555e-10, global = -1.9435e-10, cumulative = 0.000202543
smoothSolver:  Solving for k, Initial residual = 0.02476, Final residual = 7.43034e-08, No Iterations 18
ExecutionTime = 0.45 s  ClockTime = 0 s

Courant Number mean: 0.424088 max: 0.912248
deltaT = 0.000653681
Time = 0.0127402

diagonal:  Solving for rho, Initial residual = 0, Final residual = 0, No Iterations 0
smoothSolver:  Solving for Ux, Initial residual = 0.0627687, Final residual = 9.97738e-08, No Iterations 36
smoothSolver:  Solving for Uy, Initial residual = 0.0211541, Final residual = 9.25039e-08, No Iterations 33
smoothSolver:  Solving for O2, Initial residual = 0.00873184, Final residual = 8.61297e-08, No Iterations 33
max of O2 = 0.23301
min of O2 = 0
smoothSolver:  Solving for H2O, Initial residual = 0.0165933, Final residual = 8.70297e-08, No Iterations 33
max of H2O = 0.110374
min of H2O = 0
smoothSolver:  Solving for CH4, Initial residual = 0.00968412, Final residual = 7.99804e-08, No Iterations 30
max of CH4 = 1
min of CH4 = 0
smoothSolver:  Solving for CO2, Initial residual = 0.0165668, Final residual = 7.88532e-08, No Iterations 33
max of CO2 = 0.13508
min of CO2 = 0
max of N2 = 0.76699
min of N2 = 0
DILUPBiCG:  Solving for hs, Initial residual = 0.0167504, Final residual = 4.97938e-08, No Iterations 6
GAMG:  Solving for p_rgh, Initial residual = 0.140631, Final residual = 0.00135007, No Iterations 5
diagonal:  Solving for rho, Initial residual = 0, Final residual = 0, No Iterations 0
time step continuity errors : sum local = 1.97337e-05, global = 5.47406e-06, cumulative = 0.000208017
GAMG:  Solving for p_rgh, Initial residual = 0.0553839, Final residual = 7.95606e-08, No Iterations 17
diagonal:  Solving for rho, Initial residual = 0, Final residual = 0, No Iterations 0
time step continuity errors : sum local = 1.12235e-09, global = -5.35994e-10, cumulative = 0.000208017
smoothSolver:  Solving for k, Initial residual = 0.0263996, Final residual = 6.71441e-08, No Iterations 19
ExecutionTime = 0.46 s  ClockTime = 0 s

Courant Number mean: 0.42814 max: 0.908542
deltaT = 0.000716534
Time = 0.0134567

diagonal:  Solving for rho, Initial residual = 0, Final residual = 0, No Iterations 0
smoothSolver:  Solving for Ux, Initial residual = 0.0659314, Final residual = 7.82528e-08, No Iterations 41
smoothSolver:  Solving for Uy, Initial residual = 0.0227326, Final residual = 8.20009e-08, No Iterations 35
smoothSolver:  Solving for O2, Initial residual = 0.00897096, Final residual = 8.18067e-08, No Iterations 36
max of O2 = 0.23301
min of O2 = 0
smoothSolver:  Solving for H2O, Initial residual = 0.0173463, Final residual = 8.17283e-08, No Iterations 36
max of H2O = 0.110313
min of H2O = 0
smoothSolver:  Solving for CH4, Initial residual = 0.0100751, Final residual = 7.31232e-08, No Iterations 33
max of CH4 = 1
min of CH4 = 0
smoothSolver:  Solving for CO2, Initial residual = 0.0173018, Final residual = 7.34415e-08, No Iterations 36
max of CO2 = 0.135076
min of CO2 = 0
max of N2 = 0.76699
min of N2 = 0
DILUPBiCG:  Solving for hs, Initial residual = 0.0171505, Final residual = 3.89486e-08, No Iterations 6
GAMG:  Solving for p_rgh, Initial residual = 0.149708, Final residual = 0.00128269, No Iterations 5
diagonal:  Solving for rho, Initial residual = 0, Final residual = 0, No Iterations 0
time step continuity errors : sum local = 2.01067e-05, global = -1.23338e-06, cumulative = 0.000206783
GAMG:  Solving for p_rgh, Initial residual = 0.055484, Final residual = 4.34347e-08, No Iterations 17
diagonal:  Solving for rho, Initial residual = 0, Final residual = 0, No Iterations 0
time step continuity errors : sum local = 6.4504e-10, global = -2.80231e-10, cumulative = 0.000206783
smoothSolver:  Solving for k, Initial residual = 0.0284674, Final residual = 6.31396e-08, No Iterations 20
ExecutionTime = 0.48 s  ClockTime = 0 s

Courant Number mean: 0.432792 max: 0.894023
deltaT = 0.000794419
Time = 0.0142512

diagonal:  Solving for rho, Initial residual = 0, Final residual = 0, No Iterations 0
smoothSolver:  Solving for Ux, Initial residual = 0.0707065, Final residual = 9.52537e-08, No Iterations 45
smoothSolver:  Solving for Uy, Initial residual = 0.0247618, Final residual = 8.42242e-08, No Iterations 38
smoothSolver:  Solving for O2, Initial residual = 0.00925859, Final residual = 9.02073e-08, No Iterations 39
max of O2 = 0.23301
min of O2 = 0
smoothSolver:  Solving for H2O, Initial residual = 0.0182272, Final residual = 8.91228e-08, No Iterations 39
max of H2O = 0.110341
min of H2O = 0
smoothSolver:  Solving for CH4, Initial residual = 0.0105823, Final residual = 7.69601e-08, No Iterations 36
max of CH4 = 1
min of CH4 = 0
smoothSolver:  Solving for CO2, Initial residual = 0.0182175, Final residual = 8.05536e-08, No Iterations 39
max of CO2 = 0.135104
min of CO2 = 0
max of N2 = 0.76699
min of N2 = 0
DILUPBiCG:  Solving for hs, Initial residual = 0.017635, Final residual = 6.45901e-09, No Iterations 7
GAMG:  Solving for p_rgh, Initial residual = 0.138507, Final residual = 0.00118499, No Iterations 5
diagonal:  Solving for rho, Initial residual = 0, Final residual = 0, No Iterations 0
time step continuity errors : sum local = 1.9928e-05, global = 1.01934e-06, cumulative = 0.000207802
GAMG:  Solving for p_rgh, Initial residual = 0.0462296, Final residual = 5.37833e-08, No Iterations 16
diagonal:  Solving for rho, Initial residual = 0, Final residual = 0, No Iterations 0
time step continuity errors : sum local = 8.54162e-10, global = -2.02386e-10, cumulative = 0.000207802
smoothSolver:  Solving for k, Initial residual = 0.0311885, Final residual = 6.21144e-08, No Iterations 21
ExecutionTime = 0.49 s  ClockTime = 0 s

Courant Number mean: 0.436716 max: 0.871036
deltaT = 0.000871923
Time = 0.0151231

diagonal:  Solving for rho, Initial residual = 0, Final residual = 0, No Iterations 0
smoothSolver:  Solving for Ux, Initial residual = 0.0768758, Final residual = 9.81866e-08, No Iterations 50
smoothSolver:  Solving for Uy, Initial residual = 0.0256807, Final residual = 9.64624e-08, No Iterations 39
smoothSolver:  Solving for O2, Initial residual = 0.00948982, Final residual = 9.34161e-08, No Iterations 42
max of O2 = 0.23301
min of O2 = 0
smoothSolver:  Solving for H2O, Initial residual = 0.0189395, Final residual = 9.0072e-08, No Iterations 42
max of H2O = 0.110357
min of H2O = 0
smoothSolver:  Solving for CH4, Initial residual = 0.0109421, Final residual = 7.68058e-08, No Iterations 39
max of CH4 = 1
min of CH4 = 0
smoothSolver:  Solving for CO2, Initial residual = 0.0189229, Final residual = 8.14838e-08, No Iterations 42
max of CO2 = 0.13511
min of CO2 = 0
max of N2 = 0.76699
min of N2 = 0
DILUPBiCG:  Solving for hs, Initial residual = 0.017792, Final residual = 1.44182e-08, No Iterations 7
GAMG:  Solving for p_rgh, Initial residual = 0.107555, Final residual = 0.000764278, No Iterations 6
diagonal:  Solving for rho, Initial residual = 0, Final residual = 0, No Iterations 0
time step continuity errors : sum local = 1.34963e-05, global = -3.23231e-06, cumulative = 0.00020457
GAMG:  Solving for p_rgh, Initial residual = 0.036562, Final residual = 3.62186e-08, No Iterations 19
diagonal:  Solving for rho, Initial residual = 0, Final residual = 0, No Iterations 0
time step continuity errors : sum local = 5.92928e-10, global = -2.82234e-10, cumulative = 0.000204569
smoothSolver:  Solving for k, Initial residual = 0.0338401, Final residual = 9.46189e-08, No Iterations 21
ExecutionTime = 0.51 s  ClockTime = 0 s

Courant Number mean: 0.431565 max: 0.869577
deltaT = 0.000968803
Time = 0.0160919

diagonal:  Solving for rho, Initial residual = 0, Final residual = 0, No Iterations 0
smoothSolver:  Solving for Ux, Initial residual = 0.0771667, Final residual = 8.09799e-08, No Iterations 53
smoothSolver:  Solving for Uy, Initial residual = 0.0314658, Final residual = 8.21062e-08, No Iterations 47
smoothSolver:  Solving for O2, Initial residual = 0.00969332, Final residual = 8.82986e-08, No Iterations 46
max of O2 = 0.23301
min of O2 = 0
smoothSolver:  Solving for H2O, Initial residual = 0.019781, Final residual = 8.30153e-08, No Iterations 46
max of H2O = 0.11023
min of H2O = 0
smoothSolver:  Solving for CH4, Initial residual = 0.011419, Final residual = 9.23503e-08, No Iterations 42
max of CH4 = 1
min of CH4 = 0
smoothSolver:  Solving for CO2, Initial residual = 0.0197101, Final residual = 9.64618e-08, No Iterations 45
max of CO2 = 0.134963
min of CO2 = 0
max of N2 = 0.76699
min of N2 = 0
DILUPBiCG:  Solving for hs, Initial residual = 0.0180206, Final residual = 2.46729e-08, No Iterations 7
GAMG:  Solving for p_rgh, Initial residual = 0.221999, Final residual = 0.00215398, No Iterations 5
diagonal:  Solving for rho, Initial residual = 0, Final residual = 0, No Iterations 0
time step continuity errors : sum local = 3.9295e-05, global = 5.77855e-06, cumulative = 0.000210348
GAMG:  Solving for p_rgh, Initial residual = 0.0607129, Final residual = 4.9745e-08, No Iterations 19
diagonal:  Solving for rho, Initial residual = 0, Final residual = 0, No Iterations 0
time step continuity errors : sum local = 8.45752e-10, global = 3.52107e-10, cumulative = 0.000210348
smoothSolver:  Solving for k, Initial residual = 0.0368886, Final residual = 9.40729e-08, No Iterations 22
ExecutionTime = 0.52 s  ClockTime = 0 s

Courant Number mean: 0.430618 max: 0.908022
deltaT = 0.00105963
Time = 0.0171515

diagonal:  Solving for rho, Initial residual = 0, Final residual = 0, No Iterations 0
smoothSolver:  Solving for Ux, Initial residual = 0.0873507, Final residual = 8.57883e-08, No Iterations 61
smoothSolver:  Solving for Uy, Initial residual = 0.0299846, Final residual = 8.2878e-08, No Iterations 47
smoothSolver:  Solving for O2, Initial residual = 0.00988856, Final residual = 9.46695e-08, No Iterations 49
max of O2 = 0.23301
min of O2 = 0
smoothSolver:  Solving for H2O, Initial residual = 0.0204624, Final residual = 8.64363e-08, No Iterations 49
max of H2O = 0.110028
min of H2O = 0
smoothSolver:  Solving for CH4, Initial residual = 0.011712, Final residual = 9.53182e-08, No Iterations 45
max of CH4 = 1
min of CH4 = 0
smoothSolver:  Solving for CO2, Initial residual = 0.020409, Final residual = 9.81938e-08, No Iterations 48
max of CO2 = 0.134752
min of CO2 = 0
max of N2 = 0.76699
min of N2 = 0
DILUPBiCG:  Solving for hs, Initial residual = 0.0179936, Final residual = 3.25156e-08, No Iterations 7
GAMG:  Solving for p_rgh, Initial residual = 0.155734, Final residual = 0.00144196, No Iterations 6
diagonal:  Solving for rho, Initial residual = 0, Final residual = 0, No Iterations 0
time step continuity errors : sum local = 2.73432e-05, global = -7.44447e-06, cumulative = 0.000202904
GAMG:  Solving for p_rgh, Initial residual = 0.0647911, Final residual = 6.59467e-08, No Iterations 19
diagonal:  Solving for rho, Initial residual = 0, Final residual = 0, No Iterations 0
time step continuity errors : sum local = 1.13709e-09, global = -5.36237e-10, cumulative = 0.000202903
smoothSolver:  Solving for k, Initial residual = 0.0398046, Final residual = 8.66112e-08, No Iterations 23
ExecutionTime = 0.53 s  ClockTime = 0 s

Courant Number mean: 0.414961 max: 0.918508
deltaT = 0.00113271
Time = 0.0182842

diagonal:  Solving for rho, Initial residual = 0, Final residual = 0, No Iterations 0
smoothSolver:  Solving for Ux, Initial residual = 0.075019, Final residual = 8.43699e-08, No Iterations 53
smoothSolver:  Solving for Uy, Initial residual = 0.0391753, Final residual = 9.90824e-08, No Iterations 54
smoothSolver:  Solving for O2, Initial residual = 0.00987584, Final residual = 8.24035e-08, No Iterations 52
max of O2 = 0.23301
min of O2 = 0
smoothSolver:  Solving for H2O, Initial residual = 0.0206351, Final residual = 9.21479e-08, No Iterations 51
max of H2O = 0.109832
min of H2O = 0
smoothSolver:  Solving for CH4, Initial residual = 0.0116412, Final residual = 9.82888e-08, No Iterations 47
max of CH4 = 1
min of CH4 = 0
smoothSolver:  Solving for CO2, Initial residual = 0.0206233, Final residual = 8.15403e-08, No Iterations 51
max of CO2 = 0.134539
min of CO2 = 0
max of N2 = 0.76699
min of N2 = 0
DILUPBiCG:  Solving for hs, Initial residual = 0.0174694, Final residual = 3.35346e-08, No Iterations 7
GAMG:  Solving for p_rgh, Initial residual = 0.207109, Final residual = 0.0012567, No Iterations 6
diagonal:  Solving for rho, Initial residual = 0, Final residual = 0, No Iterations 0
time step continuity errors : sum local = 2.1749e-05, global = -6.07768e-06, cumulative = 0.000196826
GAMG:  Solving for p_rgh, Initial residual = 0.104565, Final residual = 4.57994e-08, No Iterations 19
diagonal:  Solving for rho, Initial residual = 0, Final residual = 0, No Iterations 0
time step continuity errors : sum local = 7.25044e-10, global = 3.12138e-10, cumulative = 0.000196826
smoothSolver:  Solving for k, Initial residual = 0.0421303, Final residual = 7.44725e-08, No Iterations 24
ExecutionTime = 0.55 s  ClockTime = 0 s

Courant Number mean: 0.407233 max: 0.907376
deltaT = 0.00121984
Time = 0.0195041

diagonal:  Solving for rho, Initial residual = 0, Final residual = 0, No Iterations 0
smoothSolver:  Solving for Ux, Initial residual = 0.0711211, Final residual = 8.77685e-08, No Iterations 65
smoothSolver:  Solving for Uy, Initial residual = 0.0381569, Final residual = 8.64656e-08, No Iterations 57
smoothSolver:  Solving for O2, Initial residual = 0.00997968, Final residual = 9.78407e-08, No Iterations 54
max of O2 = 0.23301
min of O2 = 0
[...]
smoothSolver:  Solving for Uy, Initial residual = 1.95787e-05, Final residual = 9.32562e-08, No Iterations 14
smoothSolver:  Solving for O2, Initial residual = 1.15764e-05, Final residual = 7.55899e-08, No Iterations 15
max of O2 = 0.23301
min of O2 = 0
smoothSolver:  Solving for H2O, Initial residual = 2.51968e-05, Final residual = 9.80862e-08, No Iterations 15
max of H2O = 0.108789
min of H2O = 0
smoothSolver:  Solving for CH4, Initial residual = 8.48856e-06, Final residual = 8.25607e-08, No Iterations 12
max of CH4 = 1
min of CH4 = 0
smoothSolver:  Solving for CO2, Initial residual = 2.57383e-05, Final residual = 7.43488e-08, No Iterations 16
max of CO2 = 0.133004
min of CO2 = 0
max of N2 = 0.76699
min of N2 = 0
DILUPBiCG:  Solving for hs, Initial residual = 3.58327e-05, Final residual = 6.4154e-09, No Iterations 4
GAMG:  Solving for p_rgh, Initial residual = 6.28785e-05, Final residual = 2.41649e-07, No Iterations 6
diagonal:  Solving for rho, Initial residual = 0, Final residual = 0, No Iterations 0
time step continuity errors : sum local = 1.71658e-09, global = 8.8574e-10, cumulative = 0.000271929
GAMG:  Solving for p_rgh, Initial residual = 2.68848e-05, Final residual = 7.56797e-08, No Iterations 6
diagonal:  Solving for rho, Initial residual = 0, Final residual = 0, No Iterations 0
time step continuity errors : sum local = 5.47903e-10, global = -3.08555e-10, cumulative = 0.000271929
smoothSolver:  Solving for k, Initial residual = 0.000339614, Final residual = 8.49664e-08, No Iterations 16
ExecutionTime = 2.78 s  ClockTime = 3 s

Courant Number mean: 0.366101 max: 0.98343
deltaT = 0.0016129
Time = 0.285484

diagonal:  Solving for rho, Initial residual = 0, Final residual = 0, No Iterations 0
smoothSolver:  Solving for Ux, Initial residual = 1.73763e-05, Final residual = 9.86853e-08, No Iterations 15
smoothSolver:  Solving for Uy, Initial residual = 1.84018e-05, Final residual = 7.55226e-08, No Iterations 14
smoothSolver:  Solving for O2, Initial residual = 1.10071e-05, Final residual = 9.57293e-08, No Iterations 14
max of O2 = 0.23301
min of O2 = 0
smoothSolver:  Solving for H2O, Initial residual = 2.42214e-05, Final residual = 9.37461e-08, No Iterations 15
max of H2O = 0.108789
min of H2O = 0
smoothSolver:  Solving for CH4, Initial residual = 8.28998e-06, Final residual = 8.02542e-08, No Iterations 12
max of CH4 = 1
min of CH4 = 0
smoothSolver:  Solving for CO2, Initial residual = 2.47317e-05, Final residual = 9.55975e-08, No Iterations 15
max of CO2 = 0.133003
min of CO2 = 0
max of N2 = 0.76699
min of N2 = 0
DILUPBiCG:  Solving for hs, Initial residual = 3.46665e-05, Final residual = 5.00983e-09, No Iterations 4
GAMG:  Solving for p_rgh, Initial residual = 6.57387e-05, Final residual = 5.62567e-07, No Iterations 5
diagonal:  Solving for rho, Initial residual = 0, Final residual = 0, No Iterations 0
time step continuity errors : sum local = 3.94936e-09, global = -7.0676e-10, cumulative = 0.000271928
GAMG:  Solving for p_rgh, Initial residual = 3.39933e-05, Final residual = 6.74215e-08, No Iterations 7
diagonal:  Solving for rho, Initial residual = 0, Final residual = 0, No Iterations 0
time step continuity errors : sum local = 5.14453e-10, global = 5.17583e-11, cumulative = 0.000271928
smoothSolver:  Solving for k, Initial residual = 0.000326435, Final residual = 8.17866e-08, No Iterations 16
ExecutionTime = 2.79 s  ClockTime = 3 s

Courant Number mean: 0.366111 max: 0.983461
deltaT = 0.0016129
Time = 0.287097

diagonal:  Solving for rho, Initial residual = 0, Final residual = 0, No Iterations 0
smoothSolver:  Solving for Ux, Initial residual = 1.62553e-05, Final residual = 8.55124e-08, No Iterations 15
smoothSolver:  Solving for Uy, Initial residual = 1.66631e-05, Final residual = 8.15069e-08, No Iterations 13
smoothSolver:  Solving for O2, Initial residual = 1.04446e-05, Final residual = 9.1067e-08, No Iterations 14
max of O2 = 0.23301
min of O2 = 0
smoothSolver:  Solving for H2O, Initial residual = 2.32088e-05, Final residual = 8.91575e-08, No Iterations 15
max of H2O = 0.108789
min of H2O = 0
smoothSolver:  Solving for CH4, Initial residual = 8.06182e-06, Final residual = 7.72363e-08, No Iterations 12
max of CH4 = 1
min of CH4 = 0
smoothSolver:  Solving for CO2, Initial residual = 2.37004e-05, Final residual = 9.09207e-08, No Iterations 15
max of CO2 = 0.133003
min of CO2 = 0
max of N2 = 0.76699
min of N2 = 0
DILUPBiCG:  Solving for hs, Initial residual = 3.34536e-05, Final residual = 4.07923e-09, No Iterations 4
GAMG:  Solving for p_rgh, Initial residual = 6.98987e-05, Final residual = 5.31451e-07, No Iterations 5
diagonal:  Solving for rho, Initial residual = 0, Final residual = 0, No Iterations 0
time step continuity errors : sum local = 3.75553e-09, global = -1.89969e-09, cumulative = 0.000271926
GAMG:  Solving for p_rgh, Initial residual = 3.68228e-05, Final residual = 4.82728e-08, No Iterations 7
diagonal:  Solving for rho, Initial residual = 0, Final residual = 0, No Iterations 0
time step continuity errors : sum local = 3.88391e-10, global = 1.61599e-10, cumulative = 0.000271926
smoothSolver:  Solving for k, Initial residual = 0.000313772, Final residual = 7.87432e-08, No Iterations 16
ExecutionTime = 2.81 s  ClockTime = 3 s

Courant Number mean: 0.366121 max: 0.983492
deltaT = 0.0016129
Time = 0.28871

diagonal:  Solving for rho, Initial residual = 0, Final residual = 0, No Iterations 0
smoothSolver:  Solving for Ux, Initial residual = 3.15853e-05, Final residual = 7.82538e-08, No Iterations 16
smoothSolver:  Solving for Uy, Initial residual = 4.5395e-05, Final residual = 9.90585e-08, No Iterations 15
smoothSolver:  Solving for O2, Initial residual = 9.90371e-06, Final residual = 8.6614e-08, No Iterations 14
max of O2 = 0.23301
min of O2 = 0
smoothSolver:  Solving for H2O, Initial residual = 2.2237e-05, Final residual = 8.48018e-08, No Iterations 15
max of H2O = 0.108789
min of H2O = 0
smoothSolver:  Solving for CH4, Initial residual = 7.83814e-06, Final residual = 7.44402e-08, No Iterations 12
max of CH4 = 1
min of CH4 = 0
smoothSolver:  Solving for CO2, Initial residual = 2.27052e-05, Final residual = 8.64661e-08, No Iterations 15
max of CO2 = 0.133002
min of CO2 = 0
max of N2 = 0.76699
min of N2 = 0
DILUPBiCG:  Solving for hs, Initial residual = 3.22718e-05, Final residual = 3.46251e-09, No Iterations 4
GAMG:  Solving for p_rgh, Initial residual = 0.000418249, Final residual = 3.33124e-06, No Iterations 4
diagonal:  Solving for rho, Initial residual = 0, Final residual = 0, No Iterations 0
time step continuity errors : sum local = 2.34609e-08, global = -3.89132e-09, cumulative = 0.000271922
GAMG:  Solving for p_rgh, Initial residual = 0.000173738, Final residual = 6.17461e-08, No Iterations 8
diagonal:  Solving for rho, Initial residual = 0, Final residual = 0, No Iterations 0
time step continuity errors : sum local = 4.48227e-10, global = -9.39786e-12, cumulative = 0.000271922
smoothSolver:  Solving for k, Initial residual = 0.000301584, Final residual = 7.56546e-08, No Iterations 16
ExecutionTime = 2.82 s  ClockTime = 3 s

Courant Number mean: 0.366132 max: 0.983651
deltaT = 0.0016129
Time = 0.290323

diagonal:  Solving for rho, Initial residual = 0, Final residual = 0, No Iterations 0
smoothSolver:  Solving for Ux, Initial residual = 2.3849e-05, Final residual = 9.37986e-08, No Iterations 16
smoothSolver:  Solving for Uy, Initial residual = 2.50901e-05, Final residual = 7.68196e-08, No Iterations 15
smoothSolver:  Solving for O2, Initial residual = 9.40733e-06, Final residual = 8.25976e-08, No Iterations 14
max of O2 = 0.23301
min of O2 = 0
smoothSolver:  Solving for H2O, Initial residual = 2.13307e-05, Final residual = 8.08873e-08, No Iterations 15
max of H2O = 0.108789
min of H2O = 0
smoothSolver:  Solving for CH4, Initial residual = 7.61973e-06, Final residual = 9.90394e-08, No Iterations 11
max of CH4 = 1
min of CH4 = 0
smoothSolver:  Solving for CO2, Initial residual = 2.17749e-05, Final residual = 8.24748e-08, No Iterations 15
max of CO2 = 0.133002
min of CO2 = 0
max of N2 = 0.76699
min of N2 = 0
DILUPBiCG:  Solving for hs, Initial residual = 3.11492e-05, Final residual = 2.61553e-09, No Iterations 4
GAMG:  Solving for p_rgh, Initial residual = 0.000217911, Final residual = 1.54613e-06, No Iterations 4
diagonal:  Solving for rho, Initial residual = 0, Final residual = 0, No Iterations 0
time step continuity errors : sum local = 1.08964e-08, global = 8.44864e-10, cumulative = 0.000271923
GAMG:  Solving for p_rgh, Initial residual = 9.76995e-05, Final residual = 5.12274e-08, No Iterations 7
diagonal:  Solving for rho, Initial residual = 0, Final residual = 0, No Iterations 0
time step continuity errors : sum local = 3.84713e-10, global = -1.27836e-10, cumulative = 0.000271923
smoothSolver:  Solving for k, Initial residual = 0.00028982, Final residual = 7.28054e-08, No Iterations 16
ExecutionTime = 2.83 s  ClockTime = 3 s

Courant Number mean: 0.366142 max: 0.983742
deltaT = 0.0016129
Time = 0.291935

diagonal:  Solving for rho, Initial residual = 0, Final residual = 0, No Iterations 0
smoothSolver:  Solving for Ux, Initial residual = 1.56312e-05, Final residual = 8.77432e-08, No Iterations 15
smoothSolver:  Solving for Uy, Initial residual = 1.71903e-05, Final residual = 8.17987e-08, No Iterations 13
smoothSolver:  Solving for O2, Initial residual = 8.9447e-06, Final residual = 7.8785e-08, No Iterations 14
max of O2 = 0.23301
min of O2 = 0
smoothSolver:  Solving for H2O, Initial residual = 2.04861e-05, Final residual = 7.71884e-08, No Iterations 15
max of H2O = 0.108789
min of H2O = 0
smoothSolver:  Solving for CH4, Initial residual = 7.41896e-06, Final residual = 9.59074e-08, No Iterations 11
max of CH4 = 1
min of CH4 = 0
smoothSolver:  Solving for CO2, Initial residual = 2.0908e-05, Final residual = 7.86706e-08, No Iterations 15
max of CO2 = 0.133001
min of CO2 = 0
max of N2 = 0.76699
min of N2 = 0
DILUPBiCG:  Solving for hs, Initial residual = 3.01033e-05, Final residual = 2.39958e-09, No Iterations 4
GAMG:  Solving for p_rgh, Initial residual = 0.000129133, Final residual = 4.93448e-07, No Iterations 5
diagonal:  Solving for rho, Initial residual = 0, Final residual = 0, No Iterations 0
time step continuity errors : sum local = 3.47435e-09, global = -2.52932e-10, cumulative = 0.000271923
GAMG:  Solving for p_rgh, Initial residual = 5.57268e-05, Final residual = 4.51922e-08, No Iterations 7
diagonal:  Solving for rho, Initial residual = 0, Final residual = 0, No Iterations 0
time step continuity errors : sum local = 3.57214e-10, global = 8.91818e-11, cumulative = 0.000271923
smoothSolver:  Solving for k, Initial residual = 0.000278525, Final residual = 7.00998e-08, No Iterations 16
ExecutionTime = 2.84 s  ClockTime = 3 s

Courant Number mean: 0.366152 max: 0.983795
deltaT = 0.0016129
Time = 0.293548

diagonal:  Solving for rho, Initial residual = 0, Final residual = 0, No Iterations 0
smoothSolver:  Solving for Ux, Initial residual = 1.42863e-05, Final residual = 8.5273e-08, No Iterations 15
smoothSolver:  Solving for Uy, Initial residual = 1.51208e-05, Final residual = 9.43124e-08, No Iterations 12
smoothSolver:  Solving for O2, Initial residual = 8.47832e-06, Final residual = 9.9101e-08, No Iterations 13
max of O2 = 0.23301
min of O2 = 0
smoothSolver:  Solving for H2O, Initial residual = 1.96336e-05, Final residual = 9.94515e-08, No Iterations 14
max of H2O = 0.108789
min of H2O = 0
smoothSolver:  Solving for CH4, Initial residual = 7.21052e-06, Final residual = 9.24797e-08, No Iterations 11
max of CH4 = 1
min of CH4 = 0
smoothSolver:  Solving for CO2, Initial residual = 2.00329e-05, Final residual = 7.47039e-08, No Iterations 15
max of CO2 = 0.133001
min of CO2 = 0
max of N2 = 0.76699
min of N2 = 0
DILUPBiCG:  Solving for hs, Initial residual = 2.90549e-05, Final residual = 2.16175e-09, No Iterations 4
GAMG:  Solving for p_rgh, Initial residual = 8.92022e-05, Final residual = 5.65492e-07, No Iterations 5
diagonal:  Solving for rho, Initial residual = 0, Final residual = 0, No Iterations 0
time step continuity errors : sum local = 3.97186e-09, global = -4.1499e-10, cumulative = 0.000271923
GAMG:  Solving for p_rgh, Initial residual = 3.8493e-05, Final residual = 7.22156e-08, No Iterations 7
diagonal:  Solving for rho, Initial residual = 0, Final residual = 0, No Iterations 0
time step continuity errors : sum local = 5.42899e-10, global = -7.72602e-11, cumulative = 0.000271923
smoothSolver:  Solving for k, Initial residual = 0.00026768, Final residual = 6.75095e-08, No Iterations 16
ExecutionTime = 2.85 s  ClockTime = 3 s

Courant Number mean: 0.366161 max: 0.983832
deltaT = 0.0016129
Time = 0.295161

diagonal:  Solving for rho, Initial residual = 0, Final residual = 0, No Iterations 0
smoothSolver:  Solving for Ux, Initial residual = 1.43398e-05, Final residual = 7.61439e-08, No Iterations 16
smoothSolver:  Solving for Uy, Initial residual = 1.49974e-05, Final residual = 8.08256e-08, No Iterations 13
smoothSolver:  Solving for O2, Initial residual = 8.05422e-06, Final residual = 9.46053e-08, No Iterations 13
max of O2 = 0.23301
min of O2 = 0
smoothSolver:  Solving for H2O, Initial residual = 1.88342e-05, Final residual = 9.4921e-08, No Iterations 14
max of H2O = 0.108789
min of H2O = 0
smoothSolver:  Solving for CH4, Initial residual = 7.01313e-06, Final residual = 8.94178e-08, No Iterations 11
max of CH4 = 1
min of CH4 = 0
smoothSolver:  Solving for CO2, Initial residual = 1.92148e-05, Final residual = 9.62663e-08, No Iterations 14
max of CO2 = 0.133
min of CO2 = 0
max of N2 = 0.76699
min of N2 = 0
DILUPBiCG:  Solving for hs, Initial residual = 2.80192e-05, Final residual = 2.06967e-09, No Iterations 4
GAMG:  Solving for p_rgh, Initial residual = 6.02783e-05, Final residual = 4.87637e-07, No Iterations 5
diagonal:  Solving for rho, Initial residual = 0, Final residual = 0, No Iterations 0
time step continuity errors : sum local = 3.41955e-09, global = -6.8076e-10, cumulative = 0.000271922
GAMG:  Solving for p_rgh, Initial residual = 2.53059e-05, Final residual = 6.80598e-08, No Iterations 7
diagonal:  Solving for rho, Initial residual = 0, Final residual = 0, No Iterations 0
time step continuity errors : sum local = 4.92105e-10, global = 9.66575e-11, cumulative = 0.000271922
smoothSolver:  Solving for k, Initial residual = 0.000257216, Final residual = 6.49946e-08, No Iterations 16
ExecutionTime = 2.86 s  ClockTime = 3 s

Courant Number mean: 0.366171 max: 0.983867
deltaT = 0.0016129
Time = 0.296774

diagonal:  Solving for rho, Initial residual = 0, Final residual = 0, No Iterations 0
smoothSolver:  Solving for Ux, Initial residual = 1.31719e-05, Final residual = 8.70431e-08, No Iterations 15
smoothSolver:  Solving for Uy, Initial residual = 1.32787e-05, Final residual = 7.71841e-08, No Iterations 12
smoothSolver:  Solving for O2, Initial residual = 7.66067e-06, Final residual = 9.03643e-08, No Iterations 13
max of O2 = 0.23301
min of O2 = 0
smoothSolver:  Solving for H2O, Initial residual = 1.80932e-05, Final residual = 9.07042e-08, No Iterations 14
max of H2O = 0.108789
min of H2O = 0
smoothSolver:  Solving for CH4, Initial residual = 6.82481e-06, Final residual = 8.66337e-08, No Iterations 11
max of CH4 = 1
min of CH4 = 0
smoothSolver:  Solving for CO2, Initial residual = 1.84565e-05, Final residual = 9.19666e-08, No Iterations 14
max of CO2 = 0.133
min of CO2 = 0
max of N2 = 0.76699
min of N2 = 0
DILUPBiCG:  Solving for hs, Initial residual = 2.70624e-05, Final residual = 1.98725e-09, No Iterations 4
GAMG:  Solving for p_rgh, Initial residual = 5.17639e-05, Final residual = 3.22402e-07, No Iterations 5
diagonal:  Solving for rho, Initial residual = 0, Final residual = 0, No Iterations 0
time step continuity errors : sum local = 2.29195e-09, global = -4.75204e-10, cumulative = 0.000271921
GAMG:  Solving for p_rgh, Initial residual = 2.42814e-05, Final residual = 9.53187e-08, No Iterations 6
diagonal:  Solving for rho, Initial residual = 0, Final residual = 0, No Iterations 0
time step continuity errors : sum local = 6.74964e-10, global = 1.86014e-10, cumulative = 0.000271922
smoothSolver:  Solving for k, Initial residual = 0.000247189, Final residual = 6.25889e-08, No Iterations 16
ExecutionTime = 2.87 s  ClockTime = 3 s

Courant Number mean: 0.36618 max: 0.983894
deltaT = 0.0016129
Time = 0.298387

diagonal:  Solving for rho, Initial residual = 0, Final residual = 0, No Iterations 0
smoothSolver:  Solving for Ux, Initial residual = 1.24491e-05, Final residual = 7.74478e-08, No Iterations 15
smoothSolver:  Solving for Uy, Initial residual = 1.19712e-05, Final residual = 9.2198e-08, No Iterations 11
smoothSolver:  Solving for O2, Initial residual = 7.27535e-06, Final residual = 8.60444e-08, No Iterations 13
max of O2 = 0.23301
min of O2 = 0
smoothSolver:  Solving for H2O, Initial residual = 1.73665e-05, Final residual = 8.64388e-08, No Iterations 14
max of H2O = 0.108789
min of H2O = 0
smoothSolver:  Solving for CH4, Initial residual = 6.63436e-06, Final residual = 8.37461e-08, No Iterations 11
max of CH4 = 1
min of CH4 = 0
smoothSolver:  Solving for CO2, Initial residual = 1.77111e-05, Final residual = 8.762e-08, No Iterations 14
max of CO2 = 0.133
min of CO2 = 0
max of N2 = 0.76699
min of N2 = 0
DILUPBiCG:  Solving for hs, Initial residual = 2.6122e-05, Final residual = 1.9076e-09, No Iterations 4
GAMG:  Solving for p_rgh, Initial residual = 4.86366e-05, Final residual = 4.35808e-07, No Iterations 5
diagonal:  Solving for rho, Initial residual = 0, Final residual = 0, No Iterations 0
time step continuity errors : sum local = 3.06897e-09, global = -1.25816e-09, cumulative = 0.00027192
GAMG:  Solving for p_rgh, Initial residual = 2.43903e-05, Final residual = 5.1809e-08, No Iterations 7
diagonal:  Solving for rho, Initial residual = 0, Final residual = 0, No Iterations 0
time step continuity errors : sum local = 3.88202e-10, global = 1.34167e-10, cumulative = 0.000271921
smoothSolver:  Solving for k, Initial residual = 0.000237566, Final residual = 9.87358e-08, No Iterations 15
ExecutionTime = 2.88 s  ClockTime = 3 s

Courant Number mean: 0.366188 max: 0.983919
deltaT = 0.0016129
Time = 0.3

diagonal:  Solving for rho, Initial residual = 0, Final residual = 0, No Iterations 0
smoothSolver:  Solving for Ux, Initial residual = 1.24186e-05, Final residual = 8.28897e-08, No Iterations 15
smoothSolver:  Solving for Uy, Initial residual = 1.15679e-05, Final residual = 9.0046e-08, No Iterations 11
smoothSolver:  Solving for O2, Initial residual = 6.90537e-06, Final residual = 8.19104e-08, No Iterations 13
max of O2 = 0.23301
min of O2 = 0
smoothSolver:  Solving for H2O, Initial residual = 1.66684e-05, Final residual = 8.23716e-08, No Iterations 14
max of H2O = 0.108789
min of H2O = 0
smoothSolver:  Solving for CH4, Initial residual = 6.45007e-06, Final residual = 8.10182e-08, No Iterations 11
max of CH4 = 1
min of CH4 = 0
smoothSolver:  Solving for CO2, Initial residual = 1.69943e-05, Final residual = 8.34712e-08, No Iterations 14
max of CO2 = 0.132999
min of CO2 = 0
max of N2 = 0.76699
min of N2 = 0
DILUPBiCG:  Solving for hs, Initial residual = 2.52056e-05, Final residual = 9.06295e-08, No Iterations 3
GAMG:  Solving for p_rgh, Initial residual = 4.62728e-05, Final residual = 2.2063e-07, No Iterations 6
diagonal:  Solving for rho, Initial residual = 0, Final residual = 0, No Iterations 0
time step continuity errors : sum local = 1.57676e-09, global = 8.48748e-10, cumulative = 0.000271921
GAMG:  Solving for p_rgh, Initial residual = 2.33425e-05, Final residual = 9.00143e-08, No Iterations 6
diagonal:  Solving for rho, Initial residual = 0, Final residual = 0, No Iterations 0
time step continuity errors : sum local = 6.45239e-10, global = -2.31444e-10, cumulative = 0.000271921
smoothSolver:  Solving for k, Initial residual = 0.000228357, Final residual = 9.50469e-08, No Iterations 15
ExecutionTime = 2.9 s  ClockTime = 3 s

End

