/*---------------------------------------------------------------------------*\
| =========                 |                                                 |
| \\      /  F ield         | OpenFOAM: The Open Source CFD Toolbox           |
|  \\    /   O peration     | Version:  1.7.x                                 |
|   \\  /    A nd           | Web:      www.OpenFOAM.com                      |
|    \\/     M anipulation  |                                                 |
\*---------------------------------------------------------------------------*/
Build  : 1.7.x-e90828cd94a4
Exec   : fireFoam -parallel
Date   : Mar 10 2011
Time   : 11:00:15
Host   : wangyUbuntu
PID    : 6739
Case   : /home/wangy/OpenFOAM/wangy-1.7.x/run/fireFoam/testBatteryFireFOAM/coFlowFlame2D
nProcs : 4
Slaves : 
3
(
wangyUbuntu.6740
wangyUbuntu.6741
wangyUbuntu.6742
)

Pstream initialized with:
    floatTransfer     : 0
    nProcsSimpleSum   : 0
    commsType         : nonBlocking
SigFpe : Enabling floating point exception trapping (FOAM_SIGFPE).

// * * * * * * * * * * * * * * * * * * * * * * * * * * * * * * * * * * * * * //
Create time

Create mesh for time = 0


Reading g
Reading thermophysical properties

Selecting thermodynamics package hsPsiMixtureThermoNew<singleStepReactingMixture<gasThermoPhysics>>
Selecting chemistryReader foamChemistryReader
Fuel heat of combustion :5.00314e+07
Mole based specieStoichCoeffs: 5(-2 2 -1 1 7.52)
stoichiometric air-fuel ratio :17.1204
stoichiometric oxygen-fuel ratio :3.98918
Max products: 5(0 0.123944 0 0.151392 0.724664)
mass based specieStoichCoeffs: 5(-3.98918 2.2459 -1 2.74329 13.1312)
Creating component thermo properties:
    multi-component carrier - 5 species
    liquids - 1 components
    solids - 0 components
Reading field p_rgh

Reading field U

Reading/calculating face flux field phi

Creating turbulence model

Selecting turbulence model type LESModel
Selecting LES turbulence model oneEqEddy
--> FOAM Warning : 
    From function cubeRootVolDelta::calcDelta()
    in file cubeRootVolDelta/cubeRootVolDelta.C at line 52
    Case is 2D, LES is not strictly applicable

oneEqEddyCoeffs
{
    ce              1.048;
    Prt             1;
    ck              0.094;
}

Creating combustion model

Selecting combustion model eddyDissipationModel
stoichiometric mixture fraction is = 0.0551866
Creating field DpDt

Calculating field g.h

Selecting radiationModel none
Creating pyrolysis model

Selecting pyrolysisModel none

Constructing reacting cloud
Selecting DispersionModel none
Selecting DragModel SphereDrag
Selecting InjectionModel ConeInjection
    Constructing 2-D injection
Selecting pdfType RosinRammler
Selecting PatchInteractionModel StandardWallInteraction
Selecting PostProcessingModel none
Selecting SurfaceFilmModel ThermoSurfaceFilm
    Applying absorb interaction model
Selecting U IntegrationScheme Euler
Selecting HeatTransferModel RanzMarshall
Selecting T IntegrationScheme Analytical
Selecting CompositionModel SinglePhaseMixture
Selecting PhaseChangeModel LiquidEvaporation

Constructing surface film model
Selecting surfaceFilmModel none
Courant Number mean: 0 max: 0

Starting time loop

Courant Number mean: 0 max: 0
deltaT = 0.0011976
cellSource HRR:
    total cells  = 1400
    total volume = 0.32



faceSource patchSides:
    total faces  = 80
    total area   = 0.16


faceSource patchOutlet:
    total faces  = 35
    total area   = 0.08


faceSource patchInlet:
    total faces  = 5
    total area   = 0.008


Reading/calculating field TMean

Reading/calculating field UMean

Reading/calculating field ftMean

Reading/calculating field dQMean

Reading/calculating field TPrime2Mean

Reading/calculating field ftPrime2Mean

fieldAverage: starting averaging at time 0

Time = 0.0011976

diagonal:  Solving for rho, Initial residual = 0, Final residual = 0, No Iterations 0
DILUPBiCG:  Solving for Ux, Initial residual = 1, Final residual = 7.86902e-13, No Iterations 2
DILUPBiCG:  Solving for Uy, Initial residual = 1, Final residual = 4.60623e-12, No Iterations 2
DILUPBiCG:  Solving for O2, Initial residual = 0.00677764, Final residual = 2.66382e-13, No Iterations 2
max of O2 = 0.23301
min of O2 = 0.23301
DILUPBiCG:  Solving for H2O, Initial residual = 0, Final residual = 0, No Iterations 0
max of H2O = 0
min of H2O = 0
DILUPBiCG:  Solving for CH4, Initial residual = 0.999998, Final residual = 3.05049e-15, No Iterations 2
max of CH4 = 1.19448e-09
min of CH4 = 1.03088e-275
DILUPBiCG:  Solving for CO2, Initial residual = 0, Final residual = 0, No Iterations 0
max of CO2 = 0
min of CO2 = 0
max of N2 = 0.76699
min of N2 = 0
DILUPBiCG:  Solving for hs, Initial residual = 0, Final residual = 0, No Iterations 0
GAMG:  Solving for p_rgh, Initial residual = 0.894675, Final residual = 0.00370442, No Iterations 4
diagonal:  Solving for rho, Initial residual = 0, Final residual = 0, No Iterations 0
time step continuity errors : sum local = 5.55703e-09, global = 2.25772e-09, cumulative = 2.25772e-09
GAMG:  Solving for p_rgh, Initial residual = 0.083296, Final residual = 7.65301e-07, No Iterations 8
diagonal:  Solving for rho, Initial residual = 0, Final residual = 0, No Iterations 0
time step continuity errors : sum local = 5.84736e-12, global = -2.04419e-12, cumulative = 2.25568e-09
DILUPBiCG:  Solving for k, Initial residual = 1, Final residual = 4.45058e-12, No Iterations 2
ExecutionTime = 0.04 s  ClockTime = 0 s

Courant Number mean: 1.92718e-06 max: 0.000457847
deltaT = 0.00143023
faceSource patchSides output:
    sum(sides) for phi = -2.25619e-06
    sum(sides) for HRR_fu = -9.76444e-89
    sum(sides) for phiH = -7.48641e-05
    sum(sides) for phiHs = 0
    sum(sides) for phiHc = -7.48641e-05

faceSource patchOutlet output:
    sum(outlet) for phi = -5.04649e-07
    sum(outlet) for HRR_fu = 2.29463e-205
    sum(outlet) for phiH = -1.67451e-05
    sum(outlet) for phiHs = 0
    sum(outlet) for phiHc = -1.67451e-05

faceSource patchInlet output:
    sum(inlet) for phi = -0.000200013
    sum(inlet) for HRR_fu = 1.22072e-05
    sum(inlet) for phiH = 0.00553806
    sum(inlet) for phiHs = 0
    sum(inlet) for phiHc = 0.00553806

Calculating averages

Time = 0.00262784

diagonal:  Solving for rho, Initial residual = 0, Final residual = 0, No Iterations 0
DILUPBiCG:  Solving for Ux, Initial residual = 0.373853, Final residual = 6.95502e-12, No Iterations 2
DILUPBiCG:  Solving for Uy, Initial residual = 0.264337, Final residual = 3.4215e-11, No Iterations 2
DILUPBiCG:  Solving for O2, Initial residual = 1, Final residual = 4.60336e-10, No Iterations 2
max of O2 = 0.23301
min of O2 = 0.0048499
DILUPBiCG:  Solving for H2O, Initial residual = 0.400092, Final residual = 1.84314e-10, No Iterations 2
max of H2O = 0
min of H2O = -1.01074e-20
DILUPBiCG:  Solving for CH4, Initial residual = 1, Final residual = 4.60681e-10, No Iterations 2
max of CH4 = 0.979186
min of CH4 = 0
DILUPBiCG:  Solving for CO2, Initial residual = 0.498754, Final residual = 2.29765e-10, No Iterations 2
max of CO2 = 0
min of CO2 = -1.50799e-20
max of N2 = 0.76699
min of N2 = 0
DILUPBiCG:  Solving for hs, Initial residual = 1, Final residual = 1.70845e-10, No Iterations 2
GAMG:  Solving for p_rgh, Initial residual = 0.329369, Final residual = 0.00204918, No Iterations 3
diagonal:  Solving for rho, Initial residual = 0, Final residual = 0, No Iterations 0
time step continuity errors : sum local = 1.21302e-08, global = -4.03528e-09, cumulative = -1.7796e-09
GAMG:  Solving for p_rgh, Initial residual = 0.0330751, Final residual = 6.25854e-07, No Iterations 8
diagonal:  Solving for rho, Initial residual = 0, Final residual = 0, No Iterations 0
time step continuity errors : sum local = 2.58936e-11, global = -2.20544e-11, cumulative = -1.80165e-09
DILUPBiCG:  Solving for k, Initial residual = 0.970883, Final residual = 6.52163e-12, No Iterations 2
ExecutionTime = 0.05 s  ClockTime = 0 s

Courant Number mean: 7.97674e-06 max: 0.00108784
deltaT = 0.00170148
faceSource patchSides output:
    sum(sides) for phi = 1.62625e-05
    sum(sides) for HRR_fu = -1.30343e-71
    sum(sides) for phiH = 0.000542142
    sum(sides) for phiHs = 2.26259e-06
    sum(sides) for phiHc = 0.000539616

faceSource patchOutlet output:
    sum(outlet) for phi = -6.00537e-07
    sum(outlet) for HRR_fu = -1.09182e-183
    sum(outlet) for phiH = -1.85132e-05
    sum(outlet) for phiHs = 1.41359e-06
    sum(outlet) for phiHc = -1.99268e-05

faceSource patchInlet output:
    sum(inlet) for phi = -0.0002
    sum(inlet) for HRR_fu = 10003
    sum(inlet) for phiH = 944.788
    sum(inlet) for phiHs = 1.44198e-05
    sum(inlet) for phiHc = 944.788

Calculating averages

Time = 0.00432932

diagonal:  Solving for rho, Initial residual = 0, Final residual = 0, No Iterations 0
DILUPBiCG:  Solving for Ux, Initial residual = 0.303164, Final residual = 9.43474e-12, No Iterations 2
DILUPBiCG:  Solving for Uy, Initial residual = 0.230527, Final residual = 2.46704e-11, No Iterations 2
DILUPBiCG:  Solving for O2, Initial residual = 0.199054, Final residual = 7.75376e-10, No Iterations 2
max of O2 = 0.23301
min of O2 = 0.00477382
DILUPBiCG:  Solving for H2O, Initial residual = 1, Final residual = 3.88942e-09, No Iterations 2
max of H2O = 3.68564e-07
min of H2O = 0
DILUPBiCG:  Solving for CH4, Initial residual = 0.197247, Final residual = 7.67473e-10, No Iterations 2
max of CH4 = 0.979512
min of CH4 = 0
DILUPBiCG:  Solving for CO2, Initial residual = 1, Final residual = 3.88848e-09, No Iterations 2
max of CO2 = 5.4982e-07
min of CO2 = 0
max of N2 = 0.76699
min of N2 = 0
DILUPBiCG:  Solving for hs, Initial residual = 0.486695, Final residual = 3.54835e-10, No Iterations 2
GAMG:  Solving for p_rgh, Initial residual = 0.213342, Final residual = 0.00171453, No Iterations 3
diagonal:  Solving for rho, Initial residual = 0, Final residual = 0, No Iterations 0
time step continuity errors : sum local = 3.1028e-08, global = -4.95688e-09, cumulative = -6.75854e-09
GAMG:  Solving for p_rgh, Initial residual = 0.00113195, Final residual = 9.14961e-07, No Iterations 5
diagonal:  Solving for rho, Initial residual = 0, Final residual = 0, No Iterations 0
time step continuity errors : sum local = 3.38447e-11, global = 2.35052e-11, cumulative = -6.73503e-09
DILUPBiCG:  Solving for k, Initial residual = 0.946473, Final residual = 1.56785e-11, No Iterations 2
ExecutionTime = 0.06 s  ClockTime = 0 s

Courant Number mean: 1.79627e-05 max: 0.0012942
deltaT = 0.00203824
faceSource patchSides output:
    sum(sides) for phi = 9.8642e-05
    sum(sides) for HRR_fu = -4.97355e-65
    sum(sides) for phiH = 0.00327737
    sum(sides) for phiHs = 2.53433e-06
    sum(sides) for phiHc = 0.00327311

faceSource patchOutlet output:
    sum(outlet) for phi = -7.11728e-07
    sum(outlet) for HRR_fu = -9.933e-175
    sum(outlet) for phiH = -2.06935e-05
    sum(outlet) for phiHs = 2.92282e-06
    sum(outlet) for phiHc = -2.36164e-05

faceSource patchInlet output:
    sum(inlet) for phi = -0.000199996
    sum(inlet) for HRR_fu = 10006.1
    sum(inlet) for phiH = 944.837
    sum(inlet) for phiHs = 3.69494e-05
    sum(inlet) for phiHc = 944.837

Calculating averages

Time = 0.00636756

diagonal:  Solving for rho, Initial residual = 0, Final residual = 0, No Iterations 0
DILUPBiCG:  Solving for Ux, Initial residual = 0.235275, Final residual = 3.16518e-10, No Iterations 2
DILUPBiCG:  Solving for Uy, Initial residual = 0.199046, Final residual = 2.13764e-11, No Iterations 2
DILUPBiCG:  Solving for O2, Initial residual = 0.120538, Final residual = 9.27504e-10, No Iterations 2
max of O2 = 0.23301
min of O2 = 0.0047718
DILUPBiCG:  Solving for H2O, Initial residual = 0.443388, Final residual = 3.40456e-09, No Iterations 2
max of H2O = 1.78924e-06
min of H2O = 0
DILUPBiCG:  Solving for CH4, Initial residual = 0.118477, Final residual = 9.10283e-10, No Iterations 2
max of CH4 = 0.979521
min of CH4 = 0
DILUPBiCG:  Solving for CO2, Initial residual = 0.394764, Final residual = 3.03119e-09, No Iterations 2
max of CO2 = 2.28508e-06
min of CO2 = 0
max of N2 = 0.76699
min of N2 = 0
DILUPBiCG:  Solving for hs, Initial residual = 0.313456, Final residual = 1.27956e-09, No Iterations 2
GAMG:  Solving for p_rgh, Initial residual = 0.108902, Final residual = 0.000365928, No Iterations 4
diagonal:  Solving for rho, Initial residual = 0, Final residual = 0, No Iterations 0
time step continuity errors : sum local = 1.29625e-08, global = 4.50454e-09, cumulative = -2.2305e-09
GAMG:  Solving for p_rgh, Initial residual = 0.000312257, Final residual = 3.50401e-07, No Iterations 5
diagonal:  Solving for rho, Initial residual = 0, Final residual = 0, No Iterations 0
time step continuity errors : sum local = 1.5971e-11, global = -4.88485e-12, cumulative = -2.23538e-09
DILUPBiCG:  Solving for k, Initial residual = 0.926761, Final residual = 3.12374e-11, No Iterations 2
ExecutionTime = 0.08 s  ClockTime = 0 s

Courant Number mean: 3.22801e-05 max: 0.00155037
deltaT = 0.00242041
faceSource patchSides output:
    sum(sides) for phi = 0.000290263
    sum(sides) for HRR_fu = -2.81134e-60
    sum(sides) for phiH = 0.00964148
    sum(sides) for phiHs = 4.71322e-06
    sum(sides) for phiHc = 0.00963142

faceSource patchOutlet output:
    sum(outlet) for phi = -8.4657e-07
    sum(outlet) for HRR_fu = -3.77897e-167
    sum(outlet) for phiH = -2.23865e-05
    sum(outlet) for phiHs = 5.70417e-06
    sum(outlet) for phiHc = -2.80906e-05

faceSource patchInlet output:
    sum(inlet) for phi = -0.000199998
    sum(inlet) for HRR_fu = 10006.2
    sum(inlet) for phiH = 944.837
    sum(inlet) for phiHs = 0.00011667
    sum(inlet) for phiHc = 944.837

Calculating averages

Time = 0.00878796

diagonal:  Solving for rho, Initial residual = 0, Final residual = 0, No Iterations 0
DILUPBiCG:  Solving for Ux, Initial residual = 0.188467, Final residual = 4.10721e-12, No Iterations 2
DILUPBiCG:  Solving for Uy, Initial residual = 0.169424, Final residual = 2.63613e-11, No Iterations 2
DILUPBiCG:  Solving for O2, Initial residual = 0.0904943, Final residual = 1.05708e-09, No Iterations 2
max of O2 = 0.23301
min of O2 = 0.00476923
DILUPBiCG:  Solving for H2O, Initial residual = 0.243203, Final residual = 2.85501e-09, No Iterations 2
max of H2O = 4.57072e-06
min of H2O = 0
DILUPBiCG:  Solving for CH4, Initial residual = 0.088119, Final residual = 1.03461e-09, No Iterations 2
max of CH4 = 0.979531
min of CH4 = 0
DILUPBiCG:  Solving for CO2, Initial residual = 0.235098, Final residual = 2.75985e-09, No Iterations 2
max of CO2 = 5.68249e-06
min of CO2 = 0
max of N2 = 0.76699
min of N2 = 0
DILUPBiCG:  Solving for hs, Initial residual = 0.277036, Final residual = 2.54495e-09, No Iterations 2
GAMG:  Solving for p_rgh, Initial residual = 0.0669458, Final residual = 0.00022823, No Iterations 4
diagonal:  Solving for rho, Initial residual = 0, Final residual = 0, No Iterations 0
time step continuity errors : sum local = 1.2363e-08, global = -2.94537e-10, cumulative = -2.52992e-09
GAMG:  Solving for p_rgh, Initial residual = 0.000247498, Final residual = 2.94442e-07, No Iterations 5
diagonal:  Solving for rho, Initial residual = 0, Final residual = 0, No Iterations 0
time step continuity errors : sum local = 1.51895e-11, global = 6.70163e-13, cumulative = -2.52925e-09
DILUPBiCG:  Solving for k, Initial residual = 0.910825, Final residual = 1.09887e-10, No Iterations 2
ExecutionTime = 0.09 s  ClockTime = 0 s

Courant Number mean: 4.96326e-05 max: 0.00184109
deltaT = 0.00289715
faceSource patchSides output:
    sum(sides) for phi = 0.000535154
    sum(sides) for HRR_fu = -9.37275e-57
    sum(sides) for phiH = 0.0177829
    sum(sides) for phiHs = 1.8806e-05
    sum(sides) for phiHc = 0.0177573

faceSource patchOutlet output:
    sum(outlet) for phi = -9.80139e-07
    sum(outlet) for HRR_fu = -1.73009e-159
    sum(outlet) for phiH = -1.70451e-05
    sum(outlet) for phiHs = 1.54775e-05
    sum(outlet) for phiHc = -3.25227e-05

faceSource patchInlet output:
    sum(inlet) for phi = -0.000199999
    sum(inlet) for HRR_fu = 10006.2
    sum(inlet) for phiH = 944.837
    sum(inlet) for phiHs = 0.000371138
    sum(inlet) for phiHc = 944.837

Calculating averages

Time = 0.0116851

diagonal:  Solving for rho, Initial residual = 0, Final residual = 0, No Iterations 0
DILUPBiCG:  Solving for Ux, Initial residual = 0.1532, Final residual = 1.53365e-11, No Iterations 2
DILUPBiCG:  Solving for Uy, Initial residual = 0.114319, Final residual = 7.22244e-11, No Iterations 2
DILUPBiCG:  Solving for O2, Initial residual = 0.0757827, Final residual = 1.7979e-09, No Iterations 2
max of O2 = 0.23301
min of O2 = 0.00476609
DILUPBiCG:  Solving for H2O, Initial residual = 0.180829, Final residual = 4.31861e-09, No Iterations 2
max of H2O = 9.44954e-06
min of H2O = 0
DILUPBiCG:  Solving for CH4, Initial residual = 0.0730825, Final residual = 1.74685e-09, No Iterations 2
max of CH4 = 0.979544
min of CH4 = 0
DILUPBiCG:  Solving for CO2, Initial residual = 0.178228, Final residual = 4.2565e-09, No Iterations 2
max of CO2 = 1.16417e-05
min of CO2 = 0
max of N2 = 0.76699
min of N2 = 0
DILUPBiCG:  Solving for hs, Initial residual = 0.263389, Final residual = 5.38134e-09, No Iterations 2
GAMG:  Solving for p_rgh, Initial residual = 0.0667235, Final residual = 0.000626679, No Iterations 3
diagonal:  Solving for rho, Initial residual = 0, Final residual = 0, No Iterations 0
time step continuity errors : sum local = 4.19092e-08, global = 4.51026e-09, cumulative = 1.98101e-09
GAMG:  Solving for p_rgh, Initial residual = 0.00100839, Final residual = 4.46462e-07, No Iterations 6
diagonal:  Solving for rho, Initial residual = 0, Final residual = 0, No Iterations 0
time step continuity errors : sum local = 1.9016e-11, global = -1.20736e-13, cumulative = 1.98089e-09
DILUPBiCG:  Solving for k, Initial residual = 0.898184, Final residual = 3.27712e-10, No Iterations 2
ExecutionTime = 0.1 s  ClockTime = 0 s

Courant Number mean: 6.66162e-05 max: 0.00220374
deltaT = 0.00342391
faceSource patchSides output:
    sum(sides) for phi = 0.000704644
    sum(sides) for HRR_fu = -4.20265e-54
    sum(sides) for phiH = 0.0234215
    sum(sides) for phiHs = 3.91424e-05
    sum(sides) for phiHc = 0.0233813

faceSource patchOutlet output:
    sum(outlet) for phi = -1.09882e-06
    sum(outlet) for HRR_fu = -3.23777e-153
    sum(outlet) for phiH = 3.1655e-06
    sum(outlet) for phiHs = 3.96262e-05
    sum(outlet) for phiHc = -3.64607e-05

faceSource patchInlet output:
    sum(inlet) for phi = -0.000199999
    sum(inlet) for HRR_fu = 10006.2
    sum(inlet) for phiH = 944.827
    sum(inlet) for phiHs = 0.000824828
    sum(inlet) for phiHc = 944.826

Calculating averages

Time = 0.015109

diagonal:  Solving for rho, Initial residual = 0, Final residual = 0, No Iterations 0
DILUPBiCG:  Solving for Ux, Initial residual = 0.101749, Final residual = 2.14992e-11, No Iterations 2
DILUPBiCG:  Solving for Uy, Initial residual = 0.052099, Final residual = 1.11525e-10, No Iterations 2
DILUPBiCG:  Solving for O2, Initial residual = 0.0663125, Final residual = 3.07666e-09, No Iterations 2
max of O2 = 0.23301
min of O2 = 0.00476235
DILUPBiCG:  Solving for H2O, Initial residual = 0.148269, Final residual = 6.94769e-09, No Iterations 2
max of H2O = 1.73999e-05
min of H2O = 0
DILUPBiCG:  Solving for CH4, Initial residual = 0.0632309, Final residual = 2.9693e-09, No Iterations 2
max of CH4 = 0.979559
min of CH4 = 0
DILUPBiCG:  Solving for CO2, Initial residual = 0.14719, Final residual = 6.8972e-09, No Iterations 2
max of CO2 = 2.13527e-05
min of CO2 = 0
max of N2 = 0.76699
min of N2 = 0
DILUPBiCG:  Solving for hs, Initial residual = 0.221624, Final residual = 9.1517e-09, No Iterations 2
GAMG:  Solving for p_rgh, Initial residual = 0.0717684, Final residual = 0.000266901, No Iterations 4
diagonal:  Solving for rho, Initial residual = 0, Final residual = 0, No Iterations 0
time step continuity errors : sum local = 1.55382e-08, global = -1.65523e-09, cumulative = 3.2566e-10
GAMG:  Solving for p_rgh, Initial residual = 0.00101626, Final residual = 8.1802e-07, No Iterations 6
diagonal:  Solving for rho, Initial residual = 0, Final residual = 0, No Iterations 0
time step continuity errors : sum local = 1.30093e-11, global = 1.92525e-12, cumulative = 3.27585e-10
DILUPBiCG:  Solving for k, Initial residual = 0.884763, Final residual = 7.9899e-10, No Iterations 2
ExecutionTime = 0.12 s  ClockTime = 0 s

Courant Number mean: 7.87427e-05 max: 0.00260444
deltaT = 0.00401937
faceSource patchSides output:
    sum(sides) for phi = 0.000722543
    sum(sides) for HRR_fu = -3.70293e-52
    sum(sides) for phiH = 0.0240061
    sum(sides) for phiHs = 3.718e-05
    sum(sides) for phiHc = 0.0239752

faceSource patchOutlet output:
    sum(outlet) for phi = -1.21409e-06
    sum(outlet) for HRR_fu = -2.02675e-149
    sum(outlet) for phiH = 2.25584e-05
    sum(outlet) for phiHs = 6.28441e-05
    sum(outlet) for phiHc = -4.02857e-05

faceSource patchInlet output:
    sum(inlet) for phi = -0.000199999
    sum(inlet) for HRR_fu = 10006.2
    sum(inlet) for phiH = 944.818
    sum(inlet) for phiHs = 0.00156452
    sum(inlet) for phiHc = 944.817

Calculating averages

Time = 0.0191284

diagonal:  Solving for rho, Initial residual = 0, Final residual = 0, No Iterations 0
DILUPBiCG:  Solving for Ux, Initial residual = 0.0442383, Final residual = 5.83912e-08, No Iterations 1
DILUPBiCG:  Solving for Uy, Initial residual = 0.0752218, Final residual = 1.81188e-10, No Iterations 2
DILUPBiCG:  Solving for O2, Initial residual = 0.0599483, Final residual = 5.52425e-09, No Iterations 2
max of O2 = 0.23301
min of O2 = 0.00475783
DILUPBiCG:  Solving for H2O, Initial residual = 0.128126, Final residual = 5.05517e-16, No Iterations 3
max of H2O = 2.97511e-05
min of H2O = 0
DILUPBiCG:  Solving for CH4, Initial residual = 0.0564347, Final residual = 5.31445e-09, No Iterations 2
max of CH4 = 0.979576
min of CH4 = 0
DILUPBiCG:  Solving for CO2, Initial residual = 0.127609, Final residual = 5.01964e-16, No Iterations 3
max of CO2 = 3.64391e-05
min of CO2 = 0
max of N2 = 0.76699
min of N2 = 0
DILUPBiCG:  Solving for hs, Initial residual = 0.169822, Final residual = 9.24388e-15, No Iterations 3
GAMG:  Solving for p_rgh, Initial residual = 0.154122, Final residual = 0.000440895, No Iterations 4
diagonal:  Solving for rho, Initial residual = 0, Final residual = 0, No Iterations 0
time step continuity errors : sum local = 9.04429e-09, global = -5.2714e-10, cumulative = -1.99555e-10
GAMG:  Solving for p_rgh, Initial residual = 0.000331304, Final residual = 7.4493e-07, No Iterations 5
diagonal:  Solving for rho, Initial residual = 0, Final residual = 0, No Iterations 0
time step continuity errors : sum local = 2.13405e-11, global = 9.90149e-13, cumulative = -1.98565e-10
DILUPBiCG:  Solving for k, Initial residual = 0.871472, Final residual = 2.44334e-09, No Iterations 2
ExecutionTime = 0.14 s  ClockTime = 0 s

Courant Number mean: 8.99993e-05 max: 0.00305741
deltaT = 0.00475978
faceSource patchSides output:
    sum(sides) for phi = 0.000633371
    sum(sides) for HRR_fu = -5.595e-51
    sum(sides) for phiH = 0.0210254
    sum(sides) for phiHs = 1.68846e-05
    sum(sides) for phiHc = 0.0210163

faceSource patchOutlet output:
    sum(outlet) for phi = -1.49457e-06
    sum(outlet) for HRR_fu = -1.77963e-147
    sum(outlet) for phiH = -3.00053e-06
    sum(outlet) for phiHs = 4.65919e-05
    sum(outlet) for phiHc = -4.95925e-05

faceSource patchInlet output:
    sum(inlet) for phi = -0.0002
    sum(inlet) for HRR_fu = 10006.3
    sum(inlet) for phiH = 944.811
    sum(inlet) for phiHs = 0.00271629
    sum(inlet) for phiHc = 944.808

Calculating averages

Time = 0.0238882

diagonal:  Solving for rho, Initial residual = 0, Final residual = 0, No Iterations 0
DILUPBiCG:  Solving for Ux, Initial residual = 0.0583012, Final residual = 3.21867e-11, No Iterations 2
DILUPBiCG:  Solving for Uy, Initial residual = 0.0576605, Final residual = 3.02831e-10, No Iterations 2
DILUPBiCG:  Solving for O2, Initial residual = 0.0562197, Final residual = 2.72168e-16, No Iterations 3
max of O2 = 0.23301
min of O2 = 0.00475232
DILUPBiCG:  Solving for H2O, Initial residual = 0.115767, Final residual = 1.04905e-15, No Iterations 3
max of H2O = 4.85506e-05
min of H2O = 0
DILUPBiCG:  Solving for CH4, Initial residual = 0.0521776, Final residual = 2.30704e-16, No Iterations 3
max of CH4 = 0.979597
min of CH4 = 0
DILUPBiCG:  Solving for CO2, Initial residual = 0.115492, Final residual = 1.0422e-15, No Iterations 3
max of CO2 = 5.9402e-05
min of CO2 = 0
max of N2 = 0.76699
min of N2 = 0
DILUPBiCG:  Solving for hs, Initial residual = 0.132134, Final residual = 6.66822e-15, No Iterations 3
GAMG:  Solving for p_rgh, Initial residual = 0.0831748, Final residual = 0.000279956, No Iterations 4
diagonal:  Solving for rho, Initial residual = 0, Final residual = 0, No Iterations 0
time step continuity errors : sum local = 1.04763e-08, global = 1.57263e-09, cumulative = 1.37406e-09
GAMG:  Solving for p_rgh, Initial residual = 0.000438075, Final residual = 7.59555e-07, No Iterations 5
diagonal:  Solving for rho, Initial residual = 0, Final residual = 0, No Iterations 0
time step continuity errors : sum local = 1.84519e-11, global = 4.02425e-13, cumulative = 1.37447e-09
DILUPBiCG:  Solving for k, Initial residual = 0.857933, Final residual = 2.98523e-13, No Iterations 3
ExecutionTime = 0.16 s  ClockTime = 0 s

Courant Number mean: 0.000111587 max: 0.00362062
deltaT = 0.00568103
faceSource patchSides output:
    sum(sides) for phi = 0.000567867
    sum(sides) for HRR_fu = -1.47569e-49
    sum(sides) for phiH = 0.0188394
    sum(sides) for phiHs = 6.61324e-07
    sum(sides) for phiHc = 0.0188428

faceSource patchOutlet output:
    sum(outlet) for phi = -2.02975e-06
    sum(outlet) for HRR_fu = -1.92191e-145
    sum(outlet) for phiH = -7.21556e-05
    sum(outlet) for phiHs = -4.80494e-06
    sum(outlet) for phiHc = -6.73507e-05

faceSource patchInlet output:
    sum(inlet) for phi = -0.0002
    sum(inlet) for HRR_fu = 10006.3
    sum(inlet) for phiH = 944.8
    sum(inlet) for phiHs = 0.00447264
    sum(inlet) for phiHc = 944.796

Calculating averages

Time = 0.0295692

diagonal:  Solving for rho, Initial residual = 0, Final residual = 0, No Iterations 0
DILUPBiCG:  Solving for Ux, Initial residual = 0.0688593, Final residual = 5.03577e-11, No Iterations 2
DILUPBiCG:  Solving for Uy, Initial residual = 0.0713028, Final residual = 5.36841e-10, No Iterations 2
DILUPBiCG:  Solving for O2, Initial residual = 0.0541379, Final residual = 6.26842e-16, No Iterations 3
max of O2 = 0.23301
min of O2 = 0.00474553
DILUPBiCG:  Solving for H2O, Initial residual = 0.10785, Final residual = 2.38198e-15, No Iterations 3
max of H2O = 7.68478e-05
min of H2O = 0
DILUPBiCG:  Solving for CH4, Initial residual = 0.0494571, Final residual = 5.04677e-16, No Iterations 3
max of CH4 = 0.979621
min of CH4 = 0
DILUPBiCG:  Solving for CO2, Initial residual = 0.107697, Final residual = 2.36265e-15, No Iterations 3
max of CO2 = 9.39657e-05
min of CO2 = 0
max of N2 = 0.76699
min of N2 = 0
DILUPBiCG:  Solving for hs, Initial residual = 0.115505, Final residual = 5.37411e-15, No Iterations 3
GAMG:  Solving for p_rgh, Initial residual = 0.105994, Final residual = 0.000275704, No Iterations 4
diagonal:  Solving for rho, Initial residual = 0, Final residual = 0, No Iterations 0
time step continuity errors : sum local = 9.23389e-09, global = 3.20109e-09, cumulative = 4.57556e-09
GAMG:  Solving for p_rgh, Initial residual = 0.000225788, Final residual = 4.32244e-07, No Iterations 5
diagonal:  Solving for rho, Initial residual = 0, Final residual = 0, No Iterations 0
time step continuity errors : sum local = 1.78156e-11, global = -9.15406e-13, cumulative = 4.57464e-09
DILUPBiCG:  Solving for k, Initial residual = 0.845175, Final residual = 9.69767e-09, No Iterations 2
ExecutionTime = 0.19 s  ClockTime = 0 s

Courant Number mean: 0.00015132 max: 0.00432139
deltaT = 0.00655503
faceSource patchSides output:
    sum(sides) for phi = 0.000631951
    sum(sides) for HRR_fu = -7.27903e-48
    sum(sides) for phiH = 0.0209668
    sum(sides) for phiHs = -3.68532e-06
    sum(sides) for phiHc = 0.0209692

faceSource patchOutlet output:
    sum(outlet) for phi = -2.56459e-06
    sum(outlet) for HRR_fu = -5.74088e-141
    sum(outlet) for phiH = -0.000113435
    sum(outlet) for phiHs = -2.83372e-05
    sum(outlet) for phiHc = -8.50974e-05

faceSource patchInlet output:
    sum(inlet) for phi = -0.0002
    sum(inlet) for HRR_fu = 10006.3
    sum(inlet) for phiH = 944.785
    sum(inlet) for phiHs = 0.00711861
    sum(inlet) for phiHc = 944.778

Calculating averages

Time = 0.0361242

diagonal:  Solving for rho, Initial residual = 0, Final residual = 0, No Iterations 0
DILUPBiCG:  Solving for Ux, Initial residual = 0.0624148, Final residual = 7.05129e-11, No Iterations 2
DILUPBiCG:  Solving for Uy, Initial residual = 0.0783295, Final residual = 9.44048e-10, No Iterations 2
DILUPBiCG:  Solving for O2, Initial residual = 0.0511916, Final residual = 1.21825e-15, No Iterations 3
max of O2 = 0.23301
min of O2 = 0.00473741
DILUPBiCG:  Solving for H2O, Initial residual = 0.0989663, Final residual = 4.66957e-15, No Iterations 3
max of H2O = 0.000117513
min of H2O = 0
DILUPBiCG:  Solving for CH4, Initial residual = 0.0459446, Final residual = 9.08962e-16, No Iterations 3
max of CH4 = 0.979649
min of CH4 = 0
DILUPBiCG:  Solving for CO2, Initial residual = 0.0988851, Final residual = 4.60873e-15, No Iterations 3
max of CO2 = 0.000143636
min of CO2 = 0
max of N2 = 0.76699
min of N2 = 0
DILUPBiCG:  Solving for hs, Initial residual = 0.105648, Final residual = 1.29636e-14, No Iterations 3
GAMG:  Solving for p_rgh, Initial residual = 0.0386737, Final residual = 0.000162722, No Iterations 4
diagonal:  Solving for rho, Initial residual = 0, Final residual = 0, No Iterations 0
time step continuity errors : sum local = 8.60832e-09, global = 1.10581e-09, cumulative = 5.68045e-09
GAMG:  Solving for p_rgh, Initial residual = 9.984e-05, Final residual = 6.52477e-07, No Iterations 4
diagonal:  Solving for rho, Initial residual = 0, Final residual = 0, No Iterations 0
time step continuity errors : sum local = 5.76163e-11, global = 3.37049e-12, cumulative = 5.68382e-09
DILUPBiCG:  Solving for k, Initial residual = 0.827304, Final residual = 7.60294e-09, No Iterations 2
ExecutionTime = 0.21 s  ClockTime = 0 s

Courant Number mean: 0.000201351 max: 0.00498623
deltaT = 0.00780361
faceSource patchSides output:
    sum(sides) for phi = 0.000781191
    sum(sides) for HRR_fu = -4.45446e-46
    sum(sides) for phiH = 0.0259264
    sum(sides) for phiHs = 1.50543e-06
    sum(sides) for phiHc = 0.0259213

faceSource patchOutlet output:
    sum(outlet) for phi = -2.78346e-06
    sum(outlet) for HRR_fu = -2.13022e-136
    sum(outlet) for phiH = -9.54991e-05
    sum(outlet) for phiHs = -3.13911e-06
    sum(outlet) for phiHc = -9.23599e-05

faceSource patchInlet output:
    sum(inlet) for phi = -0.0002
    sum(inlet) for HRR_fu = 10006.3
    sum(inlet) for phiH = 944.767
    sum(inlet) for phiHs = 0.0109217
    sum(inlet) for phiHc = 944.756

Calculating averages

Time = 0.0439278

diagonal:  Solving for rho, Initial residual = 0, Final residual = 0, No Iterations 0
DILUPBiCG:  Solving for Ux, Initial residual = 0.0883805, Final residual = 1.35295e-10, No Iterations 2
DILUPBiCG:  Solving for Uy, Initial residual = 0.060197, Final residual = 1.62268e-09, No Iterations 2
DILUPBiCG:  Solving for O2, Initial residual = 0.0507028, Final residual = 3.04723e-15, No Iterations 3
max of O2 = 0.23301
min of O2 = 0.00472735
DILUPBiCG:  Solving for H2O, Initial residual = 0.0949185, Final residual = 1.12202e-14, No Iterations 3
max of H2O = 0.000176812
min of H2O = 0
DILUPBiCG:  Solving for CH4, Initial residual = 0.0446733, Final residual = 2.14273e-15, No Iterations 3
max of CH4 = 0.979683
min of CH4 = 0
DILUPBiCG:  Solving for CO2, Initial residual = 0.094886, Final residual = 1.09785e-14, No Iterations 3
max of CO2 = 0.000216068
min of CO2 = 0
max of N2 = 0.76699
min of N2 = 0
DILUPBiCG:  Solving for hs, Initial residual = 0.0970888, Final residual = 1.53111e-14, No Iterations 3
GAMG:  Solving for p_rgh, Initial residual = 0.0130121, Final residual = 5.73067e-05, No Iterations 4
diagonal:  Solving for rho, Initial residual = 0, Final residual = 0, No Iterations 0
time step continuity errors : sum local = 7.10115e-09, global = -2.92968e-09, cumulative = 2.75414e-09
GAMG:  Solving for p_rgh, Initial residual = 8.01522e-05, Final residual = 5.05927e-07, No Iterations 4
diagonal:  Solving for rho, Initial residual = 0, Final residual = 0, No Iterations 0
time step continuity errors : sum local = 4.78098e-11, global = -1.81631e-11, cumulative = 2.73598e-09
DILUPBiCG:  Solving for k, Initial residual = 0.813508, Final residual = 9.66933e-09, No Iterations 2
ExecutionTime = 0.23 s  ClockTime = 0 s

Courant Number mean: 0.00027057 max: 0.00593601
deltaT = 0.00918072
faceSource patchSides output:
    sum(sides) for phi = 0.000910377
    sum(sides) for HRR_fu = -2.67255e-44
    sum(sides) for phiH = 0.0302198
    sum(sides) for phiHs = 1.02797e-05
    sum(sides) for phiHc = 0.0302078

faceSource patchOutlet output:
    sum(outlet) for phi = -3.11846e-06
    sum(outlet) for HRR_fu = -2.37938e-132
    sum(outlet) for phiH = -8.3117e-05
    sum(outlet) for phiHs = 2.03586e-05
    sum(outlet) for phiHc = -0.000103476

faceSource patchInlet output:
    sum(inlet) for phi = -0.0002
    sum(inlet) for HRR_fu = 10006.3
    sum(inlet) for phiH = 944.747
    sum(inlet) for phiHs = 0.0164691
    sum(inlet) for phiHc = 944.73

Calculating averages

Time = 0.0531086

diagonal:  Solving for rho, Initial residual = 0, Final residual = 0, No Iterations 0
DILUPBiCG:  Solving for Ux, Initial residual = 0.071411, Final residual = 2.42661e-10, No Iterations 2
DILUPBiCG:  Solving for Uy, Initial residual = 0.0549348, Final residual = 2.72754e-09, No Iterations 2
DILUPBiCG:  Solving for O2, Initial residual = 0.0500821, Final residual = 7.10649e-15, No Iterations 3
max of O2 = 0.23301
min of O2 = 0.00471493
DILUPBiCG:  Solving for H2O, Initial residual = 0.090855, Final residual = 2.51047e-14, No Iterations 3
max of H2O = 0.000261659
min of H2O = 0
DILUPBiCG:  Solving for CH4, Initial residual = 0.043249, Final residual = 4.76933e-15, No Iterations 3
max of CH4 = 0.979722
min of CH4 = 0
DILUPBiCG:  Solving for CO2, Initial residual = 0.090871, Final residual = 2.41364e-14, No Iterations 3
max of CO2 = 0.000319705
min of CO2 = 0
max of N2 = 0.76699
min of N2 = 0
DILUPBiCG:  Solving for hs, Initial residual = 0.0914389, Final residual = 3.00341e-14, No Iterations 3
GAMG:  Solving for p_rgh, Initial residual = 0.0172502, Final residual = 4.31977e-05, No Iterations 4
diagonal:  Solving for rho, Initial residual = 0, Final residual = 0, No Iterations 0
time step continuity errors : sum local = 5.58883e-09, global = -3.23495e-09, cumulative = -4.98973e-10
GAMG:  Solving for p_rgh, Initial residual = 7.44056e-05, Final residual = 4.94787e-07, No Iterations 4
diagonal:  Solving for rho, Initial residual = 0, Final residual = 0, No Iterations 0
time step continuity errors : sum local = 4.38558e-11, global = -1.40173e-11, cumulative = -5.1299e-10
DILUPBiCG:  Solving for k, Initial residual = 0.794504, Final residual = 3.24771e-12, No Iterations 3
ExecutionTime = 0.25 s  ClockTime = 0 s

Courant Number mean: 0.00035517 max: 0.00698358
deltaT = 0.0104922
faceSource patchSides output:
    sum(sides) for phi = 0.00100431
    sum(sides) for HRR_fu = -2.30958e-42
    sum(sides) for phiH = 0.0333383
    sum(sides) for phiHs = 1.44853e-05
    sum(sides) for phiHc = 0.0333247

faceSource patchOutlet output:
    sum(outlet) for phi = -3.71265e-06
    sum(outlet) for HRR_fu = -2.21723e-128
    sum(outlet) for phiH = -0.000107361
    sum(outlet) for phiHs = 1.58309e-05
    sum(outlet) for phiHc = -0.000123192

faceSource patchInlet output:
    sum(inlet) for phi = -0.0002
    sum(inlet) for HRR_fu = 10006.3
    sum(inlet) for phiH = 944.726
    sum(inlet) for phiHs = 0.0244098
    sum(inlet) for phiHc = 944.702

Calculating averages

Time = 0.0636008

diagonal:  Solving for rho, Initial residual = 0, Final residual = 0, No Iterations 0
DILUPBiCG:  Solving for Ux, Initial residual = 0.0535845, Final residual = 3.94933e-10, No Iterations 2
DILUPBiCG:  Solving for Uy, Initial residual = 0.0593401, Final residual = 4.76623e-09, No Iterations 2
DILUPBiCG:  Solving for O2, Initial residual = 0.0486125, Final residual = 1.32023e-14, No Iterations 3
max of O2 = 0.23301
min of O2 = 0.00469994
DILUPBiCG:  Solving for H2O, Initial residual = 0.0854236, Final residual = 4.60827e-14, No Iterations 3
max of H2O = 0.000378673
min of H2O = 0
DILUPBiCG:  Solving for CH4, Initial residual = 0.041082, Final residual = 8.70725e-15, No Iterations 3
max of CH4 = 0.979767
min of CH4 = 0
DILUPBiCG:  Solving for CO2, Initial residual = 0.0854998, Final residual = 4.31753e-14, No Iterations 3
max of CO2 = 0.000462633
min of CO2 = 0
max of N2 = 0.76699
min of N2 = 0
DILUPBiCG:  Solving for hs, Initial residual = 0.0856122, Final residual = 5.74313e-14, No Iterations 3
GAMG:  Solving for p_rgh, Initial residual = 0.00883861, Final residual = 8.68569e-05, No Iterations 3
diagonal:  Solving for rho, Initial residual = 0, Final residual = 0, No Iterations 0
time step continuity errors : sum local = 1.00302e-08, global = 2.55176e-09, cumulative = 2.03877e-09
GAMG:  Solving for p_rgh, Initial residual = 9.1585e-05, Final residual = 3.70479e-07, No Iterations 4
diagonal:  Solving for rho, Initial residual = 0, Final residual = 0, No Iterations 0
time step continuity errors : sum local = 4.43528e-11, global = 1.07105e-11, cumulative = 2.04948e-09
DILUPBiCG:  Solving for k, Initial residual = 0.767768, Final residual = 5.41374e-12, No Iterations 3
ExecutionTime = 0.27 s  ClockTime = 0 s

Courant Number mean: 0.000455362 max: 0.00873069
deltaT = 0.0123999
faceSource patchSides output:
    sum(sides) for phi = 0.00111709
    sum(sides) for HRR_fu = -1.46762e-40
    sum(sides) for phiH = 0.0370792
    sum(sides) for phiHs = 1.31183e-05
    sum(sides) for phiHc = 0.0370669

faceSource patchOutlet output:
    sum(outlet) for phi = -4.33973e-06
    sum(outlet) for HRR_fu = -6.62795e-125
    sum(outlet) for phiH = -0.000136864
    sum(outlet) for phiHs = 7.13527e-06
    sum(outlet) for phiHc = -0.000144

faceSource patchInlet output:
    sum(inlet) for phi = -0.0002
    sum(inlet) for HRR_fu = 10006.3
    sum(inlet) for phiH = 944.705
    sum(inlet) for phiHs = 0.0353659
    sum(inlet) for phiHc = 944.669

Calculating averages

Time = 0.0760007

diagonal:  Solving for rho, Initial residual = 0, Final residual = 0, No Iterations 0
DILUPBiCG:  Solving for Ux, Initial residual = 0.0583275, Final residual = 7.49939e-10, No Iterations 2
DILUPBiCG:  Solving for Uy, Initial residual = 0.063701, Final residual = 9.13282e-09, No Iterations 2
DILUPBiCG:  Solving for O2, Initial residual = 0.0493759, Final residual = 3.16437e-14, No Iterations 3
max of O2 = 0.23301
min of O2 = 0.00468119
DILUPBiCG:  Solving for H2O, Initial residual = 0.0838062, Final residual = 1.03844e-13, No Iterations 3
max of H2O = 0.00054351
min of H2O = 0
DILUPBiCG:  Solving for CH4, Initial residual = 0.0408126, Final residual = 2.64828e-14, No Iterations 3
max of CH4 = 0.97982
min of CH4 = 0
DILUPBiCG:  Solving for CO2, Initial residual = 0.0839934, Final residual = 9.21806e-14, No Iterations 3
max of CO2 = 0.000663975
min of CO2 = 0
max of N2 = 0.76699
min of N2 = 0
DILUPBiCG:  Solving for hs, Initial residual = 0.0833297, Final residual = 1.34143e-13, No Iterations 3
GAMG:  Solving for p_rgh, Initial residual = 0.015619, Final residual = 8.54126e-05, No Iterations 4
diagonal:  Solving for rho, Initial residual = 0, Final residual = 0, No Iterations 0
time step continuity errors : sum local = 1.42048e-08, global = -1.74956e-09, cumulative = 2.99919e-10
GAMG:  Solving for p_rgh, Initial residual = 0.000130198, Final residual = 6.38248e-07, No Iterations 4
diagonal:  Solving for rho, Initial residual = 0, Final residual = 0, No Iterations 0
time step continuity errors : sum local = 1.10499e-10, global = -2.01792e-11, cumulative = 2.7974e-10
DILUPBiCG:  Solving for k, Initial residual = 0.746057, Final residual = 1.00287e-11, No Iterations 3
ExecutionTime = 0.29 s  ClockTime = 0 s

Courant Number mean: 0.000605579 max: 0.0114197
deltaT = 0.0137777
faceSource patchSides output:
    sum(sides) for phi = 0.00126091
    sum(sides) for HRR_fu = -7.03065e-39
    sum(sides) for phiH = 0.0418512
    sum(sides) for phiHs = 1.21393e-05
    sum(sides) for phiHc = 0.041839

faceSource patchOutlet output:
    sum(outlet) for phi = -5.12671e-06
    sum(outlet) for HRR_fu = -1.65669e-120
    sum(outlet) for phiH = -0.000162864
    sum(outlet) for phiHs = 7.24919e-06
    sum(outlet) for phiHc = -0.000170113

faceSource patchInlet output:
    sum(inlet) for phi = -0.0002
    sum(inlet) for HRR_fu = 10006.3
    sum(inlet) for phiH = 944.681
    sum(inlet) for phiHs = 0.0508102
    sum(inlet) for phiHc = 944.63

Calculating averages

Time = 0.0897784

diagonal:  Solving for rho, Initial residual = 0, Final residual = 0, No Iterations 0
DILUPBiCG:  Solving for Ux, Initial residual = 0.0591182, Final residual = 1.1036e-09, No Iterations 2
DILUPBiCG:  Solving for Uy, Initial residual = 0.0588258, Final residual = 1.34918e-08, No Iterations 2
DILUPBiCG:  Solving for O2, Initial residual = 0.0474714, Final residual = 8.25986e-14, No Iterations 3
max of O2 = 0.23301
min of O2 = 0.00465895
DILUPBiCG:  Solving for H2O, Initial residual = 0.078444, Final residual = 1.25581e-13, No Iterations 3
max of H2O = 0.000761182
min of H2O = 0
DILUPBiCG:  Solving for CH4, Initial residual = 0.0384177, Final residual = 7.16037e-14, No Iterations 3
max of CH4 = 0.979879
min of CH4 = 0
DILUPBiCG:  Solving for CO2, Initial residual = 0.0786792, Final residual = 1.16186e-13, No Iterations 3
max of CO2 = 0.000929853
min of CO2 = 0
max of N2 = 0.76699
min of N2 = 0
DILUPBiCG:  Solving for hs, Initial residual = 0.0774304, Final residual = 2.2368e-13, No Iterations 3
GAMG:  Solving for p_rgh, Initial residual = 0.0108688, Final residual = 3.28258e-05, No Iterations 4
diagonal:  Solving for rho, Initial residual = 0, Final residual = 0, No Iterations 0
time step continuity errors : sum local = 7.01107e-09, global = 1.34238e-09, cumulative = 1.62212e-09
GAMG:  Solving for p_rgh, Initial residual = 7.47412e-05, Final residual = 3.68941e-07, No Iterations 4
diagonal:  Solving for rho, Initial residual = 0, Final residual = 0, No Iterations 0
time step continuity errors : sum local = 8.01621e-11, global = 1.04941e-11, cumulative = 1.63261e-09
DILUPBiCG:  Solving for k, Initial residual = 0.709159, Final residual = 1.52358e-11, No Iterations 3
ExecutionTime = 0.31 s  ClockTime = 0 s

Courant Number mean: 0.000758426 max: 0.0139984
deltaT = 0.0157459
faceSource patchSides output:
    sum(sides) for phi = 0.00142329
    sum(sides) for HRR_fu = -4.75516e-37
    sum(sides) for phiH = 0.0472413
    sum(sides) for phiHs = 1.40522e-05
    sum(sides) for phiHc = 0.0472271

faceSource patchOutlet output:
    sum(outlet) for phi = -5.67209e-06
    sum(outlet) for HRR_fu = -6.27738e-117
    sum(outlet) for phiH = -0.000179339
    sum(outlet) for phiHs = 8.87078e-06
    sum(outlet) for phiHc = -0.000188209

faceSource patchInlet output:
    sum(inlet) for phi = -0.0002
    sum(inlet) for HRR_fu = 10006.3
    sum(inlet) for phiH = 944.657
    sum(inlet) for phiHs = 0.071212
    sum(inlet) for phiHc = 944.586

Calculating averages

Time = 0.105524

diagonal:  Solving for rho, Initial residual = 0, Final residual = 0, No Iterations 0
DILUPBiCG:  Solving for Ux, Initial residual = 0.0611888, Final residual = 1.89041e-09, No Iterations 2
DILUPBiCG:  Solving for Uy, Initial residual = 0.0616158, Final residual = 2.34928e-08, No Iterations 2
DILUPBiCG:  Solving for O2, Initial residual = 0.0474408, Final residual = 2.28637e-13, No Iterations 3
max of O2 = 0.23301
min of O2 = 0.00463177
DILUPBiCG:  Solving for H2O, Initial residual = 0.0758581, Final residual = 3.13678e-13, No Iterations 3
max of H2O = 0.00105275
min of H2O = 0
DILUPBiCG:  Solving for CH4, Initial residual = 0.037719, Final residual = 1.91998e-13, No Iterations 3
max of CH4 = 0.979948
min of CH4 = 0
DILUPBiCG:  Solving for CO2, Initial residual = 0.0756919, Final residual = 3.12288e-13, No Iterations 3
max of CO2 = 0.00128599
min of CO2 = 0
max of N2 = 0.76699
min of N2 = 0
DILUPBiCG:  Solving for hs, Initial residual = 0.0749186, Final residual = 4.3132e-13, No Iterations 3
GAMG:  Solving for p_rgh, Initial residual = 0.0163499, Final residual = 5.09772e-05, No Iterations 4
diagonal:  Solving for rho, Initial residual = 0, Final residual = 0, No Iterations 0
time step continuity errors : sum local = 1.44999e-08, global = -4.16508e-09, cumulative = -2.53247e-09
GAMG:  Solving for p_rgh, Initial residual = 0.000167989, Final residual = 6.87648e-07, No Iterations 4
diagonal:  Solving for rho, Initial residual = 0, Final residual = 0, No Iterations 0
time step continuity errors : sum local = 1.90176e-10, global = -3.0208e-11, cumulative = -2.56268e-09
DILUPBiCG:  Solving for k, Initial residual = 0.677035, Final residual = 2.51845e-11, No Iterations 3
ExecutionTime = 0.34 s  ClockTime = 0 s

Courant Number mean: 0.000975067 max: 0.0176612
deltaT = 0.0157459
faceSource patchSides output:
    sum(sides) for phi = 0.00160322
    sum(sides) for HRR_fu = -1.69468e-35
    sum(sides) for phiH = 0.0532136
    sum(sides) for phiHs = 1.6111e-05
    sum(sides) for phiHc = 0.0531975

faceSource patchOutlet output:
    sum(outlet) for phi = -6.48195e-06
    sum(outlet) for HRR_fu = -4.69397e-113
    sum(outlet) for phiH = -0.000206231
    sum(outlet) for phiHs = 8.85094e-06
    sum(outlet) for phiHc = -0.000215082

faceSource patchInlet output:
    sum(inlet) for phi = -0.0002
    sum(inlet) for HRR_fu = 10006.3
    sum(inlet) for phiH = 944.634
    sum(inlet) for phiHs = 0.0985562
    sum(inlet) for phiHc = 944.535

Calculating averages

Time = 0.12127

diagonal:  Solving for rho, Initial residual = 0, Final residual = 0, No Iterations 0
DILUPBiCG:  Solving for Ux, Initial residual = 0.0531139, Final residual = 1.92232e-09, No Iterations 2
DILUPBiCG:  Solving for Uy, Initial residual = 0.0536327, Final residual = 2.4825e-08, No Iterations 2
DILUPBiCG:  Solving for O2, Initial residual = 0.0419998, Final residual = 3.98176e-13, No Iterations 3
max of O2 = 0.23301
min of O2 = 0.00460248
DILUPBiCG:  Solving for H2O, Initial residual = 0.0649324, Final residual = 5.58033e-13, No Iterations 3
max of H2O = 0.0013939
min of H2O = 0
DILUPBiCG:  Solving for CH4, Initial residual = 0.0327728, Final residual = 3.18198e-13, No Iterations 3
max of CH4 = 0.980017
min of CH4 = 0
DILUPBiCG:  Solving for CO2, Initial residual = 0.0648308, Final residual = 5.56506e-13, No Iterations 3
max of CO2 = 0.0017027
min of CO2 = 0
max of N2 = 0.76699
min of N2 = 0
DILUPBiCG:  Solving for hs, Initial residual = 0.0650014, Final residual = 5.56496e-13, No Iterations 3
GAMG:  Solving for p_rgh, Initial residual = 0.0144775, Final residual = 0.000108222, No Iterations 4
diagonal:  Solving for rho, Initial residual = 0, Final residual = 0, No Iterations 0
time step continuity errors : sum local = 3.02405e-08, global = 6.9497e-09, cumulative = 4.38702e-09
GAMG:  Solving for p_rgh, Initial residual = 0.000165304, Final residual = 8.75364e-07, No Iterations 4
diagonal:  Solving for rho, Initial residual = 0, Final residual = 0, No Iterations 0
time step continuity errors : sum local = 2.88542e-10, global = 3.97018e-11, cumulative = 4.42672e-09
DILUPBiCG:  Solving for k, Initial residual = 0.611286, Final residual = 2.67736e-11, No Iterations 3
ExecutionTime = 0.34 s  ClockTime = 1 s

Courant Number mean: 0.00110426 max: 0.0193864
deltaT = 0.0157459
faceSource patchSides output:
    sum(sides) for phi = 0.00181528
    sum(sides) for HRR_fu = -1.81989e-34
    sum(sides) for phiH = 0.0602524
    sum(sides) for phiHs = 1.84076e-05
    sum(sides) for phiHc = 0.0602341

faceSource patchOutlet output:
    sum(outlet) for phi = -6.4857e-06
    sum(outlet) for HRR_fu = -5.47311e-111
    sum(outlet) for phiH = -0.000206585
    sum(outlet) for phiHs = 8.62198e-06
    sum(outlet) for phiHc = -0.000215207

faceSource patchInlet output:
    sum(inlet) for phi = -0.0002
    sum(inlet) for HRR_fu = 10006.3
    sum(inlet) for phiH = 944.615
    sum(inlet) for phiHs = 0.130541
    sum(inlet) for phiHc = 944.484

Calculating averages

Time = 0.137016

diagonal:  Solving for rho, Initial residual = 0, Final residual = 0, No Iterations 0
DILUPBiCG:  Solving for Ux, Initial residual = 0.0554979, Final residual = 2.39494e-09, No Iterations 2
DILUPBiCG:  Solving for Uy, Initial residual = 0.0567251, Final residual = 2.98446e-08, No Iterations 2
DILUPBiCG:  Solving for O2, Initial residual = 0.0378965, Final residual = 6.16633e-13, No Iterations 3
max of O2 = 0.23301
min of O2 = 0.00457102
DILUPBiCG:  Solving for H2O, Initial residual = 0.0567205, Final residual = 8.53276e-13, No Iterations 3
max of H2O = 0.00178436
min of H2O = 0
DILUPBiCG:  Solving for CH4, Initial residual = 0.0291847, Final residual = 4.75158e-13, No Iterations 3
max of CH4 = 0.980088
min of CH4 = 0
DILUPBiCG:  Solving for CO2, Initial residual = 0.0566552, Final residual = 8.51517e-13, No Iterations 3
max of CO2 = 0.00217963
min of CO2 = 0
max of N2 = 0.76699
min of N2 = 0
DILUPBiCG:  Solving for hs, Initial residual = 0.0570994, Final residual = 8.79846e-13, No Iterations 3
GAMG:  Solving for p_rgh, Initial residual = 0.0140355, Final residual = 6.31695e-05, No Iterations 4
diagonal:  Solving for rho, Initial residual = 0, Final residual = 0, No Iterations 0
time step continuity errors : sum local = 2.10313e-08, global = -3.99481e-09, cumulative = 4.31911e-10
GAMG:  Solving for p_rgh, Initial residual = 0.000194757, Final residual = 8.69386e-07, No Iterations 4
diagonal:  Solving for rho, Initial residual = 0, Final residual = 0, No Iterations 0
time step continuity errors : sum local = 2.9135e-10, global = -4.90362e-11, cumulative = 3.82874e-10
DILUPBiCG:  Solving for k, Initial residual = 0.549781, Final residual = 2.76555e-11, No Iterations 3
ExecutionTime = 0.36 s  ClockTime = 1 s

Courant Number mean: 0.00123129 max: 0.0209607
deltaT = 0.0157459
faceSource patchSides output:
    sum(sides) for phi = 0.00202848
    sum(sides) for HRR_fu = -3.19232e-33
    sum(sides) for phiH = 0.0673289
    sum(sides) for phiHs = 2.02628e-05
    sum(sides) for phiHc = 0.0673084

faceSource patchOutlet output:
    sum(outlet) for phi = -6.47668e-06
    sum(outlet) for HRR_fu = -8.02971e-109
    sum(outlet) for phiH = -0.000205753
    sum(outlet) for phiHs = 9.154e-06
    sum(outlet) for phiHc = -0.000214907

faceSource patchInlet output:
    sum(inlet) for phi = -0.0002
    sum(inlet) for HRR_fu = 10006.3
    sum(inlet) for phiH = 944.598
    sum(inlet) for phiHs = 0.167139
    sum(inlet) for phiHc = 944.431

Calculating averages

Time = 0.152762

diagonal:  Solving for rho, Initial residual = 0, Final residual = 0, No Iterations 0
DILUPBiCG:  Solving for Ux, Initial residual = 0.0496535, Final residual = 2.17436e-09, No Iterations 2
DILUPBiCG:  Solving for Uy, Initial residual = 0.0502547, Final residual = 3.13952e-08, No Iterations 2
DILUPBiCG:  Solving for O2, Initial residual = 0.0346284, Final residual = 8.86765e-13, No Iterations 3
max of O2 = 0.23301
min of O2 = 0.00453736
DILUPBiCG:  Solving for H2O, Initial residual = 0.0503406, Final residual = 1.19905e-12, No Iterations 3
max of H2O = 0.00222424
min of H2O = 0
DILUPBiCG:  Solving for CH4, Initial residual = 0.0264134, Final residual = 6.55805e-13, No Iterations 3
max of CH4 = 0.980159
min of CH4 = 0
DILUPBiCG:  Solving for CO2, Initial residual = 0.050298, Final residual = 1.19697e-12, No Iterations 3
max of CO2 = 0.00271693
min of CO2 = 0
max of N2 = 0.76699
min of N2 = 0
DILUPBiCG:  Solving for hs, Initial residual = 0.0505298, Final residual = 1.23138e-12, No Iterations 3
GAMG:  Solving for p_rgh, Initial residual = 0.0119319, Final residual = 8.10519e-05, No Iterations 4
diagonal:  Solving for rho, Initial residual = 0, Final residual = 0, No Iterations 0
time step continuity errors : sum local = 2.74719e-08, global = -3.82218e-09, cumulative = -3.43931e-09
GAMG:  Solving for p_rgh, Initial residual = 0.000228959, Final residual = 9.50937e-07, No Iterations 4
diagonal:  Solving for rho, Initial residual = 0, Final residual = 0, No Iterations 0
time step continuity errors : sum local = 3.00675e-10, global = -4.86387e-11, cumulative = -3.48795e-09
DILUPBiCG:  Solving for k, Initial residual = 0.492156, Final residual = 2.8234e-11, No Iterations 3
ExecutionTime = 0.38 s  ClockTime = 1 s

Courant Number mean: 0.00134772 max: 0.0223422
deltaT = 0.0157459
faceSource patchSides output:
    sum(sides) for phi = 0.00222286
    sum(sides) for HRR_fu = -3.50388e-32
    sum(sides) for phiH = 0.0737823
    sum(sides) for phiHs = 2.41612e-05
    sum(sides) for phiHc = 0.0737581

faceSource patchOutlet output:
    sum(outlet) for phi = -6.47459e-06
    sum(outlet) for HRR_fu = -5.44336e-107
    sum(outlet) for phiH = -0.000205565
    sum(outlet) for phiHs = 9.27288e-06
    sum(outlet) for phiHc = -0.000214838

faceSource patchInlet output:
    sum(inlet) for phi = -0.0002
    sum(inlet) for HRR_fu = 10006.3
    sum(inlet) for phiH = 944.585
    sum(inlet) for phiHs = 0.20836
    sum(inlet) for phiHc = 944.376

Calculating averages

Time = 0.168508

diagonal:  Solving for rho, Initial residual = 0, Final residual = 0, No Iterations 0
DILUPBiCG:  Solving for Ux, Initial residual = 0.0419295, Final residual = 2.14046e-09, No Iterations 2
DILUPBiCG:  Solving for Uy, Initial residual = 0.0424604, Final residual = 3.22218e-08, No Iterations 2
DILUPBiCG:  Solving for O2, Initial residual = 0.0319489, Final residual = 1.16487e-12, No Iterations 3
max of O2 = 0.23301
min of O2 = 0.00450142
DILUPBiCG:  Solving for H2O, Initial residual = 0.0452572, Final residual = 1.53575e-12, No Iterations 3
max of H2O = 0.00271389
min of H2O = 0
DILUPBiCG:  Solving for CH4, Initial residual = 0.0241901, Final residual = 8.28953e-13, No Iterations 3
max of CH4 = 0.980233
min of CH4 = 0
DILUPBiCG:  Solving for CO2, Initial residual = 0.0452305, Final residual = 1.53558e-12, No Iterations 3
max of CO2 = 0.00331501
min of CO2 = 0
max of N2 = 0.76699
min of N2 = 0
DILUPBiCG:  Solving for hs, Initial residual = 0.0453505, Final residual = 1.56994e-12, No Iterations 3
GAMG:  Solving for p_rgh, Initial residual = 0.0135895, Final residual = 4.6256e-05, No Iterations 4
diagonal:  Solving for rho, Initial residual = 0, Final residual = 0, No Iterations 0
time step continuity errors : sum local = 1.48125e-08, global = -4.20736e-09, cumulative = -7.69531e-09
GAMG:  Solving for p_rgh, Initial residual = 0.00021263, Final residual = 7.48364e-07, No Iterations 4
diagonal:  Solving for rho, Initial residual = 0, Final residual = 0, No Iterations 0
time step continuity errors : sum local = 2.36454e-10, global = -3.99117e-11, cumulative = -7.73522e-09
DILUPBiCG:  Solving for k, Initial residual = 0.42586, Final residual = 2.65269e-11, No Iterations 3
ExecutionTime = 0.39 s  ClockTime = 1 s

Courant Number mean: 0.0014609 max: 0.023561
deltaT = 0.0157459
faceSource patchSides output:
    sum(sides) for phi = 0.00241113
    sum(sides) for HRR_fu = -3.01788e-31
    sum(sides) for phiH = 0.0800313
    sum(sides) for phiHs = 2.61842e-05
    sum(sides) for phiHc = 0.0800053

faceSource patchOutlet output:
    sum(outlet) for phi = -6.48178e-06
    sum(outlet) for HRR_fu = -3.12273e-105
    sum(outlet) for phiH = -0.000206237
    sum(outlet) for phiHs = 8.83963e-06
    sum(outlet) for phiHc = -0.000215077

faceSource patchInlet output:
    sum(inlet) for phi = -0.0002
    sum(inlet) for HRR_fu = 10006.3
    sum(inlet) for phiH = 944.576
    sum(inlet) for phiHs = 0.254239
    sum(inlet) for phiHc = 944.321

Calculating averages

Time = 0.184254

diagonal:  Solving for rho, Initial residual = 0, Final residual = 0, No Iterations 0
DILUPBiCG:  Solving for Ux, Initial residual = 0.037753, Final residual = 2.01275e-09, No Iterations 2
DILUPBiCG:  Solving for Uy, Initial residual = 0.0383617, Final residual = 3.28311e-08, No Iterations 2
DILUPBiCG:  Solving for O2, Initial residual = 0.0297045, Final residual = 1.44084e-12, No Iterations 3
max of O2 = 0.23301
min of O2 = 0.00446315
DILUPBiCG:  Solving for H2O, Initial residual = 0.0411196, Final residual = 1.87242e-12, No Iterations 3
max of H2O = 0.00325387
min of H2O = 0
DILUPBiCG:  Solving for CH4, Initial residual = 0.0223585, Final residual = 9.92578e-13, No Iterations 3
max of CH4 = 0.980307
min of CH4 = 0
DILUPBiCG:  Solving for CO2, Initial residual = 0.0411052, Final residual = 1.87355e-12, No Iterations 3
max of CO2 = 0.00397458
min of CO2 = 0
max of N2 = 0.76699
min of N2 = 0
DILUPBiCG:  Solving for hs, Initial residual = 0.041139, Final residual = 1.90562e-12, No Iterations 3
GAMG:  Solving for p_rgh, Initial residual = 0.0133574, Final residual = 5.08554e-05, No Iterations 4
diagonal:  Solving for rho, Initial residual = 0, Final residual = 0, No Iterations 0
time step continuity errors : sum local = 1.62689e-08, global = -4.12926e-09, cumulative = -1.18645e-08
GAMG:  Solving for p_rgh, Initial residual = 0.000228284, Final residual = 8.13721e-07, No Iterations 4
diagonal:  Solving for rho, Initial residual = 0, Final residual = 0, No Iterations 0
time step continuity errors : sum local = 2.61224e-10, global = -4.65506e-11, cumulative = -1.1911e-08
DILUPBiCG:  Solving for k, Initial residual = 0.367334, Final residual = 2.47502e-11, No Iterations 3
ExecutionTime = 0.41 s  ClockTime = 1 s

Courant Number mean: 0.00157235 max: 0.0246383
deltaT = 0.0157459
faceSource patchSides output:
    sum(sides) for phi = 0.00259788
    sum(sides) for HRR_fu = -1.86492e-30
    sum(sides) for phiH = 0.0862289
    sum(sides) for phiHs = 2.6845e-05
    sum(sides) for phiHc = 0.0862021

faceSource patchOutlet output:
    sum(outlet) for phi = -6.48478e-06
    sum(outlet) for HRR_fu = -7.5117e-104
    sum(outlet) for phiH = -0.000206519
    sum(outlet) for phiHs = 8.65676e-06
    sum(outlet) for phiHc = -0.000215176

faceSource patchInlet output:
    sum(inlet) for phi = -0.0002
    sum(inlet) for HRR_fu = 10006.3
    sum(inlet) for phiH = 944.569
    sum(inlet) for phiHs = 0.304833
    sum(inlet) for phiHc = 944.264

Calculating averages

Time = 0.2

diagonal:  Solving for rho, Initial residual = 0, Final residual = 0, No Iterations 0
DILUPBiCG:  Solving for Ux, Initial residual = 0.0347833, Final residual = 1.881e-09, No Iterations 2
DILUPBiCG:  Solving for Uy, Initial residual = 0.0351957, Final residual = 3.32693e-08, No Iterations 2
DILUPBiCG:  Solving for O2, Initial residual = 0.0277872, Final residual = 1.69748e-12, No Iterations 3
max of O2 = 0.23301
min of O2 = 0.00442246
DILUPBiCG:  Solving for H2O, Initial residual = 0.0376866, Final residual = 2.1753e-12, No Iterations 3
max of H2O = 0.00384501
min of H2O = 0
DILUPBiCG:  Solving for CH4, Initial residual = 0.0208113, Final residual = 1.13647e-12, No Iterations 3
max of CH4 = 0.980384
min of CH4 = 0
DILUPBiCG:  Solving for CO2, Initial residual = 0.0376851, Final residual = 2.17863e-12, No Iterations 3
max of CO2 = 0.00469663
min of CO2 = 0
max of N2 = 0.76699
min of N2 = 0
DILUPBiCG:  Solving for hs, Initial residual = 0.03765, Final residual = 2.20772e-12, No Iterations 3
GAMG:  Solving for p_rgh, Initial residual = 0.0133453, Final residual = 4.85762e-05, No Iterations 4
diagonal:  Solving for rho, Initial residual = 0, Final residual = 0, No Iterations 0
time step continuity errors : sum local = 1.57695e-08, global = -4.23507e-09, cumulative = -1.61461e-08
GAMG:  Solving for p_rgh, Initial residual = 0.000239186, Final residual = 8.26701e-07, No Iterations 4
diagonal:  Solving for rho, Initial residual = 0, Final residual = 0, No Iterations 0
time step continuity errors : sum local = 2.68086e-10, global = -4.88154e-11, cumulative = -1.61949e-08
DILUPBiCG:  Solving for k, Initial residual = 0.317745, Final residual = 2.27764e-11, No Iterations 3
ExecutionTime = 0.44 s  ClockTime = 1 s

Courant Number mean: 0.00168186 max: 0.0255957
deltaT = 0.0181818
faceSource patchSides output:
    sum(sides) for phi = 0.00278211
    sum(sides) for HRR_fu = -8.53614e-30
    sum(sides) for phiH = 0.0923434
    sum(sides) for phiHs = 2.82556e-05
    sum(sides) for phiHc = 0.0923151

faceSource patchOutlet output:
    sum(outlet) for phi = -6.4849e-06
    sum(outlet) for HRR_fu = -2.26877e-102
    sum(outlet) for phiH = -0.000206536
    sum(outlet) for phiHs = 8.64429e-06
    sum(outlet) for phiHc = -0.00021518

faceSource patchInlet output:
    sum(inlet) for phi = -0.0002
    sum(inlet) for HRR_fu = 10006.3
    sum(inlet) for phiH = 944.566
    sum(inlet) for phiHs = 0.360223
    sum(inlet) for phiHc = 944.206

Calculating averages

Time = 0.218182

diagonal:  Solving for rho, Initial residual = 0, Final residual = 0, No Iterations 0
DILUPBiCG:  Solving for Ux, Initial residual = 0.0369558, Final residual = 2.85206e-09, No Iterations 2
DILUPBiCG:  Solving for Uy, Initial residual = 0.0375143, Final residual = 5.338e-08, No Iterations 2
DILUPBiCG:  Solving for O2, Initial residual = 0.0300158, Final residual = 3.29195e-12, No Iterations 3
max of O2 = 0.23301
min of O2 = 0.00437285
DILUPBiCG:  Solving for H2O, Initial residual = 0.039849, Final residual = 4.22804e-12, No Iterations 3
max of H2O = 0.00458224
min of H2O = 0
DILUPBiCG:  Solving for CH4, Initial residual = 0.0224625, Final residual = 2.19077e-12, No Iterations 3
max of CH4 = 0.980475
min of CH4 = 0
DILUPBiCG:  Solving for CO2, Initial residual = 0.0398621, Final residual = 4.24039e-12, No Iterations 3
max of CO2 = 0.00559713
min of CO2 = 0
max of N2 = 0.76699
min of N2 = 0
DILUPBiCG:  Solving for hs, Initial residual = 0.0397682, Final residual = 4.28602e-12, No Iterations 3
GAMG:  Solving for p_rgh, Initial residual = 0.0211078, Final residual = 0.000160595, No Iterations 4
diagonal:  Solving for rho, Initial residual = 0, Final residual = 0, No Iterations 0
time step continuity errors : sum local = 7.01868e-08, global = -9.44081e-09, cumulative = -2.56357e-08
GAMG:  Solving for p_rgh, Initial residual = 0.00058704, Final residual = 5.74902e-07, No Iterations 5
diagonal:  Solving for rho, Initial residual = 0, Final residual = 0, No Iterations 0
time step continuity errors : sum local = 2.19769e-10, global = -4.56653e-11, cumulative = -2.56814e-08
DILUPBiCG:  Solving for k, Initial residual = 0.306622, Final residual = 3.51335e-11, No Iterations 3
ExecutionTime = 0.46 s  ClockTime = 1 s

Courant Number mean: 0.00206147 max: 0.030602
deltaT = 0.020202
faceSource patchSides output:
    sum(sides) for phi = 0.00295962
    sum(sides) for HRR_fu = -8.48931e-29
    sum(sides) for phiH = 0.0982349
    sum(sides) for phiHs = 2.986e-05
    sum(sides) for phiHc = 0.0982051

faceSource patchOutlet output:
    sum(outlet) for phi = -7.48804e-06
    sum(outlet) for HRR_fu = -6.38156e-100
    sum(outlet) for phiH = -0.000239874
    sum(outlet) for phiHs = 8.59224e-06
    sum(outlet) for phiHc = -0.000248466

faceSource patchInlet output:
    sum(inlet) for phi = -0.0002
    sum(inlet) for HRR_fu = 10006.3
    sum(inlet) for phiH = 944.565
    sum(inlet) for phiHs = 0.42938
    sum(inlet) for phiHc = 944.136

Calculating averages

Time = 0.238384

diagonal:  Solving for rho, Initial residual = 0, Final residual = 0, No Iterations 0
DILUPBiCG:  Solving for Ux, Initial residual = 0.032359, Final residual = 5.49433e-09, No Iterations 2
DILUPBiCG:  Solving for Uy, Initial residual = 0.0325107, Final residual = 6.55945e-08, No Iterations 2
DILUPBiCG:  Solving for O2, Initial residual = 0.0310287, Final residual = 5.12913e-12, No Iterations 3
max of O2 = 0.23301
min of O2 = 0.00431417
DILUPBiCG:  Solving for H2O, Initial residual = 0.0404534, Final residual = 6.60796e-12, No Iterations 3
max of H2O = 0.00547427
min of H2O = 0
DILUPBiCG:  Solving for CH4, Initial residual = 0.02314, Final residual = 3.34271e-12, No Iterations 3
max of CH4 = 0.98058
min of CH4 = 0
DILUPBiCG:  Solving for CO2, Initial residual = 0.040478, Final residual = 6.64617e-12, No Iterations 3
max of CO2 = 0.00668671
min of CO2 = 0
max of N2 = 0.76699
min of N2 = 0
DILUPBiCG:  Solving for hs, Initial residual = 0.0402952, Final residual = 6.66802e-12, No Iterations 3
GAMG:  Solving for p_rgh, Initial residual = 0.0245879, Final residual = 0.000216586, No Iterations 3
diagonal:  Solving for rho, Initial residual = 0, Final residual = 0, No Iterations 0
time step continuity errors : sum local = 1.03057e-07, global = -3.21266e-08, cumulative = -5.7808e-08
GAMG:  Solving for p_rgh, Initial residual = 0.000591991, Final residual = 5.53725e-07, No Iterations 5
diagonal:  Solving for rho, Initial residual = 0, Final residual = 0, No Iterations 0
time step continuity errors : sum local = 2.61627e-10, global = -7.05128e-11, cumulative = -5.78785e-08
DILUPBiCG:  Solving for k, Initial residual = 0.286749, Final residual = 4.52193e-11, No Iterations 3
ExecutionTime = 0.49 s  ClockTime = 1 s

Courant Number mean: 0.00243581 max: 0.036757
deltaT = 0.023088
faceSource patchSides output:
    sum(sides) for phi = 0.00315141
    sum(sides) for HRR_fu = -1.15557e-27
    sum(sides) for phiH = 0.1046
    sum(sides) for phiHs = 3.14437e-05
    sum(sides) for phiHc = 0.104569

faceSource patchOutlet output:
    sum(outlet) for phi = -8.33129e-06
    sum(outlet) for HRR_fu = -1.82497e-97
    sum(outlet) for phiH = -0.000268422
    sum(outlet) for phiHs = 8.02454e-06
    sum(outlet) for phiHc = -0.000276446

faceSource patchInlet output:
    sum(inlet) for phi = -0.0002
    sum(inlet) for HRR_fu = 10006.3
    sum(inlet) for phiH = 944.57
    sum(inlet) for phiHs = 0.51315
    sum(inlet) for phiHc = 944.057

Calculating averages

Time = 0.261472

diagonal:  Solving for rho, Initial residual = 0, Final residual = 0, No Iterations 0
DILUPBiCG:  Solving for Ux, Initial residual = 0.0343035, Final residual = 1.8968e-08, No Iterations 2
DILUPBiCG:  Solving for Uy, Initial residual = 0.034943, Final residual = 8.37172e-11, No Iterations 3
DILUPBiCG:  Solving for O2, Initial residual = 0.0328963, Final residual = 8.65613e-12, No Iterations 3
max of O2 = 0.23301
min of O2 = 0.00424257
DILUPBiCG:  Solving for H2O, Initial residual = 0.0421461, Final residual = 1.13745e-11, No Iterations 3
max of H2O = 0.0065902
min of H2O = 0
DILUPBiCG:  Solving for CH4, Initial residual = 0.0244891, Final residual = 5.72319e-12, No Iterations 3
max of CH4 = 0.980703
min of CH4 = 0
DILUPBiCG:  Solving for CO2, Initial residual = 0.0421729, Final residual = 1.1467e-11, No Iterations 3
max of CO2 = 0.00804978
min of CO2 = 0
max of N2 = 0.76699
min of N2 = 0
DILUPBiCG:  Solving for hs, Initial residual = 0.0419056, Final residual = 1.17258e-11, No Iterations 3
GAMG:  Solving for p_rgh, Initial residual = 0.032714, Final residual = 9.83e-05, No Iterations 4
diagonal:  Solving for rho, Initial residual = 0, Final residual = 0, No Iterations 0
time step continuity errors : sum local = 6.14494e-08, global = -1.67983e-08, cumulative = -7.46769e-08
GAMG:  Solving for p_rgh, Initial residual = 0.00075215, Final residual = 5.86789e-07, No Iterations 5
diagonal:  Solving for rho, Initial residual = 0, Final residual = 0, No Iterations 0
time step continuity errors : sum local = 3.64945e-10, global = -7.25999e-11, cumulative = -7.47495e-08
DILUPBiCG:  Solving for k, Initial residual = 0.273869, Final residual = 8.40042e-11, No Iterations 3
ExecutionTime = 0.5 s  ClockTime = 1 s

Courant Number mean: 0.00296666 max: 0.0456317
deltaT = 0.0277056
faceSource patchSides output:
    sum(sides) for phi = 0.00336574
    sum(sides) for HRR_fu = -1.37687e-26
    sum(sides) for phiH = 0.111711
    sum(sides) for phiHs = 3.03033e-05
    sum(sides) for phiHc = 0.111681

faceSource patchOutlet output:
    sum(outlet) for phi = -9.52452e-06
    sum(outlet) for HRR_fu = -8.74636e-95
    sum(outlet) for phiH = -0.000308205
    sum(outlet) for phiHs = 7.83511e-06
    sum(outlet) for phiHc = -0.00031604

faceSource patchInlet output:
    sum(inlet) for phi = -0.0002
    sum(inlet) for HRR_fu = 10006.3
    sum(inlet) for phiH = 944.579
    sum(inlet) for phiHs = 0.617627
    sum(inlet) for phiHc = 943.962

Calculating averages

Time = 0.289177

diagonal:  Solving for rho, Initial residual = 0, Final residual = 0, No Iterations 0
DILUPBiCG:  Solving for Ux, Initial residual = 0.0380783, Final residual = 9.71887e-08, No Iterations 2
DILUPBiCG:  Solving for Uy, Initial residual = 0.03868, Final residual = 2.06053e-10, No Iterations 3
DILUPBiCG:  Solving for O2, Initial residual = 0.0349131, Final residual = 3.18085e-11, No Iterations 3
max of O2 = 0.23301
min of O2 = 0.00415697
DILUPBiCG:  Solving for H2O, Initial residual = 0.0427267, Final residual = 3.18693e-11, No Iterations 3
max of H2O = 0.00788004
min of H2O = 0
DILUPBiCG:  Solving for CH4, Initial residual = 0.0272184, Final residual = 2.33339e-11, No Iterations 3
max of CH4 = 0.980859
min of CH4 = 0
DILUPBiCG:  Solving for CO2, Initial residual = 0.0427148, Final residual = 3.18464e-11, No Iterations 3
max of CO2 = 0.00962526
min of CO2 = 0
max of N2 = 0.76699
min of N2 = 0
DILUPBiCG:  Solving for hs, Initial residual = 0.0424638, Final residual = 3.45462e-11, No Iterations 3
GAMG:  Solving for p_rgh, Initial residual = 0.0555458, Final residual = 0.000521024, No Iterations 4
diagonal:  Solving for rho, Initial residual = 0, Final residual = 0, No Iterations 0
time step continuity errors : sum local = 4.82859e-07, global = -6.35985e-08, cumulative = -1.38348e-07
GAMG:  Solving for p_rgh, Initial residual = 0.0044919, Final residual = 2.90738e-07, No Iterations 7
diagonal:  Solving for rho, Initial residual = 0, Final residual = 0, No Iterations 0
time step continuity errors : sum local = 1.37541e-10, global = -2.38551e-11, cumulative = -1.38372e-07
DILUPBiCG:  Solving for k, Initial residual = 0.267245, Final residual = 1.58354e-10, No Iterations 3
ExecutionTime = 0.53 s  ClockTime = 1 s

Courant Number mean: 0.00360937 max: 0.05704
deltaT = 0.0277056
faceSource patchSides output:
    sum(sides) for phi = 0.00343275
    sum(sides) for HRR_fu = -2.02337e-25
    sum(sides) for phiH = 0.113935
    sum(sides) for phiHs = 3.03731e-05
    sum(sides) for phiHc = 0.113904

faceSource patchOutlet output:
    sum(outlet) for phi = -1.14268e-05
    sum(outlet) for HRR_fu = -3.808e-91
    sum(outlet) for phiH = -0.000371339
    sum(outlet) for phiHs = 7.8211e-06
    sum(outlet) for phiHc = -0.00037916

faceSource patchInlet output:
    sum(inlet) for phi = -0.000199999
    sum(inlet) for HRR_fu = 10006.3
    sum(inlet) for phiH = 944.578
    sum(inlet) for phiHs = 0.738109
    sum(inlet) for phiHc = 943.84

Calculating averages

Time = 0.316883

diagonal:  Solving for rho, Initial residual = 0, Final residual = 0, No Iterations 0
DILUPBiCG:  Solving for Ux, Initial residual = 0.0139834, Final residual = 5.84815e-09, No Iterations 2
DILUPBiCG:  Solving for Uy, Initial residual = 0.0138121, Final residual = 6.56372e-08, No Iterations 2
DILUPBiCG:  Solving for O2, Initial residual = 0.030249, Final residual = 3.71645e-11, No Iterations 3
max of O2 = 0.23301
min of O2 = 0.00406993
DILUPBiCG:  Solving for H2O, Initial residual = 0.0361933, Final residual = 3.75365e-11, No Iterations 3
max of H2O = 0.00914602
min of H2O = 0
DILUPBiCG:  Solving for CH4, Initial residual = 0.0239685, Final residual = 2.64938e-11, No Iterations 3
max of CH4 = 0.981024
min of CH4 = 0
DILUPBiCG:  Solving for CO2, Initial residual = 0.0361929, Final residual = 3.75132e-11, No Iterations 3
max of CO2 = 0.0111716
min of CO2 = 0
max of N2 = 0.76699
min of N2 = 0
DILUPBiCG:  Solving for hs, Initial residual = 0.0360409, Final residual = 3.99652e-11, No Iterations 3
GAMG:  Solving for p_rgh, Initial residual = 0.0922996, Final residual = 0.000287854, No Iterations 4
diagonal:  Solving for rho, Initial residual = 0, Final residual = 0, No Iterations 0
time step continuity errors : sum local = 1.43469e-07, global = -2.71664e-08, cumulative = -1.65538e-07
GAMG:  Solving for p_rgh, Initial residual = 0.00276745, Final residual = 4.63333e-07, No Iterations 6
diagonal:  Solving for rho, Initial residual = 0, Final residual = 0, No Iterations 0
time step continuity errors : sum local = 1.98305e-10, global = -4.66728e-11, cumulative = -1.65585e-07
DILUPBiCG:  Solving for k, Initial residual = 0.228313, Final residual = 8.98538e-11, No Iterations 3
ExecutionTime = 0.56 s  ClockTime = 1 s

Courant Number mean: 0.00362734 max: 0.0590961
deltaT = 0.0277056
faceSource patchSides output:
    sum(sides) for phi = 0.00345879
    sum(sides) for HRR_fu = -1.11304e-24
    sum(sides) for phiH = 0.114798
    sum(sides) for phiHs = 2.99906e-05
    sum(sides) for phiHc = 0.114769

faceSource patchOutlet output:
    sum(outlet) for phi = -1.14929e-05
    sum(outlet) for HRR_fu = -1.13331e-89
    sum(outlet) for phiH = -0.000375763
    sum(outlet) for phiHs = 5.58959e-06
    sum(outlet) for phiHc = -0.000381353

faceSource patchInlet output:
    sum(inlet) for phi = -0.0002
    sum(inlet) for HRR_fu = 10006.3
    sum(inlet) for phiH = 944.573
    sum(inlet) for phiHs = 0.855952
    sum(inlet) for phiHc = 943.717

Calculating averages

Time = 0.344589

diagonal:  Solving for rho, Initial residual = 0, Final residual = 0, No Iterations 0
DILUPBiCG:  Solving for Ux, Initial residual = 0.010525, Final residual = 7.0545e-08, No Iterations 2
DILUPBiCG:  Solving for Uy, Initial residual = 0.0132598, Final residual = 6.30652e-08, No Iterations 2
DILUPBiCG:  Solving for O2, Initial residual = 0.0267376, Final residual = 4.74482e-11, No Iterations 3
max of O2 = 0.23301
min of O2 = 0.00398188
DILUPBiCG:  Solving for H2O, Initial residual = 0.0315335, Final residual = 5.53365e-11, No Iterations 3
max of H2O = 0.0103884
min of H2O = 0
DILUPBiCG:  Solving for CH4, Initial residual = 0.0213858, Final residual = 3.43911e-11, No Iterations 3
max of CH4 = 0.981197
min of CH4 = 0
DILUPBiCG:  Solving for CO2, Initial residual = 0.0315207, Final residual = 5.52968e-11, No Iterations 3
max of CO2 = 0.0126891
min of CO2 = 0
max of N2 = 0.76699
min of N2 = 0
DILUPBiCG:  Solving for hs, Initial residual = 0.0314387, Final residual = 5.83778e-11, No Iterations 3
GAMG:  Solving for p_rgh, Initial residual = 0.101506, Final residual = 0.000284441, No Iterations 4
diagonal:  Solving for rho, Initial residual = 0, Final residual = 0, No Iterations 0
time step continuity errors : sum local = 1.3196e-07, global = 3.40825e-08, cumulative = -1.31502e-07
GAMG:  Solving for p_rgh, Initial residual = 0.00232338, Final residual = 9.02666e-07, No Iterations 5
diagonal:  Solving for rho, Initial residual = 0, Final residual = 0, No Iterations 0
time step continuity errors : sum local = 4.84399e-10, global = 8.63005e-11, cumulative = -1.31416e-07
DILUPBiCG:  Solving for k, Initial residual = 0.199193, Final residual = 1.17674e-10, No Iterations 3
ExecutionTime = 0.59 s  ClockTime = 1 s

Courant Number mean: 0.00366469 max: 0.0617503
deltaT = 0.0277056
faceSource patchSides output:
    sum(sides) for phi = 0.00350183
    sum(sides) for HRR_fu = -3.69127e-24
    sum(sides) for phiH = 0.116216
    sum(sides) for phiHs = 1.9867e-05
    sum(sides) for phiHc = 0.116197

faceSource patchOutlet output:
    sum(outlet) for phi = -1.15141e-05
    sum(outlet) for HRR_fu = -2.07731e-88
    sum(outlet) for phiH = -0.000377184
    sum(outlet) for phiHs = 4.87203e-06
    sum(outlet) for phiHc = -0.000382056

faceSource patchInlet output:
    sum(inlet) for phi = -0.0002
    sum(inlet) for HRR_fu = 10006.3
    sum(inlet) for phiH = 944.557
    sum(inlet) for phiHs = 0.971152
    sum(inlet) for phiHc = 943.586

Calculating averages

Time = 0.372294

diagonal:  Solving for rho, Initial residual = 0, Final residual = 0, No Iterations 0
DILUPBiCG:  Solving for Ux, Initial residual = 0.0132086, Final residual = 7.64835e-09, No Iterations 2
DILUPBiCG:  Solving for Uy, Initial residual = 0.0162506, Final residual = 7.54934e-08, No Iterations 2
DILUPBiCG:  Solving for O2, Initial residual = 0.0240352, Final residual = 5.63491e-11, No Iterations 3
max of O2 = 0.23301
min of O2 = 0.00389286
DILUPBiCG:  Solving for H2O, Initial residual = 0.0280879, Final residual = 6.6753e-11, No Iterations 3
max of H2O = 0.0116111
min of H2O = 0
DILUPBiCG:  Solving for CH4, Initial residual = 0.0192903, Final residual = 4.21716e-11, No Iterations 3
max of CH4 = 0.981378
min of CH4 = 0
DILUPBiCG:  Solving for CO2, Initial residual = 0.0280827, Final residual = 6.67135e-11, No Iterations 3
max of CO2 = 0.0141826
min of CO2 = 0
max of N2 = 0.76699
min of N2 = 0
DILUPBiCG:  Solving for hs, Initial residual = 0.0279739, Final residual = 7.00655e-11, No Iterations 3
GAMG:  Solving for p_rgh, Initial residual = 0.079758, Final residual = 0.000765938, No Iterations 3
diagonal:  Solving for rho, Initial residual = 0, Final residual = 0, No Iterations 0
time step continuity errors : sum local = 4.39501e-07, global = -9.33435e-08, cumulative = -2.2476e-07
GAMG:  Solving for p_rgh, Initial residual = 0.00241311, Final residual = 7.37101e-07, No Iterations 6
diagonal:  Solving for rho, Initial residual = 0, Final residual = 0, No Iterations 0
time step continuity errors : sum local = 4.51365e-10, global = -7.99967e-11, cumulative = -2.2484e-07
DILUPBiCG:  Solving for k, Initial residual = 0.176036, Final residual = 2.13148e-10, No Iterations 3
ExecutionTime = 0.62 s  ClockTime = 1 s

Courant Number mean: 0.00372114 max: 0.0672051
deltaT = 0.0277056
faceSource patchSides output:
    sum(sides) for phi = 0.00354635
    sum(sides) for HRR_fu = -1.38689e-23
    sum(sides) for phiH = 0.117692
    sum(sides) for phiHs = 1.78639e-05
    sum(sides) for phiHc = 0.117674

faceSource patchOutlet output:
    sum(outlet) for phi = -1.1506e-05
    sum(outlet) for HRR_fu = -2.1519e-87
    sum(outlet) for phiH = -0.000376651
    sum(outlet) for phiHs = 5.13851e-06
    sum(outlet) for phiHc = -0.000381789

faceSource patchInlet output:
    sum(inlet) for phi = -0.0002
    sum(inlet) for HRR_fu = 10006.3
    sum(inlet) for phiH = 944.534
    sum(inlet) for phiHs = 1.08398
    sum(inlet) for phiHc = 943.45

Calculating averages

Time = 0.4

diagonal:  Solving for rho, Initial residual = 0, Final residual = 0, No Iterations 0
DILUPBiCG:  Solving for Ux, Initial residual = 0.0140988, Final residual = 8.14397e-09, No Iterations 2
DILUPBiCG:  Solving for Uy, Initial residual = 0.018198, Final residual = 8.83904e-08, No Iterations 2
DILUPBiCG:  Solving for O2, Initial residual = 0.0219352, Final residual = 5.68167e-11, No Iterations 3
max of O2 = 0.23301
min of O2 = 0.00380619
DILUPBiCG:  Solving for H2O, Initial residual = 0.0255024, Final residual = 7.02659e-11, No Iterations 3
max of H2O = 0.012701
min of H2O = 0
DILUPBiCG:  Solving for CH4, Initial residual = 0.0177551, Final residual = 5.68369e-11, No Iterations 3
max of CH4 = 0.981565
min of CH4 = 0
DILUPBiCG:  Solving for CO2, Initial residual = 0.0255063, Final residual = 7.02311e-11, No Iterations 3
max of CO2 = 0.0155139
min of CO2 = 0
max of N2 = 0.76699
min of N2 = 0
DILUPBiCG:  Solving for hs, Initial residual = 0.025372, Final residual = 7.36669e-11, No Iterations 3
GAMG:  Solving for p_rgh, Initial residual = 0.0802809, Final residual = 0.000625829, No Iterations 3
diagonal:  Solving for rho, Initial residual = 0, Final residual = 0, No Iterations 0
time step continuity errors : sum local = 3.95241e-07, global = 1.20748e-07, cumulative = -1.04091e-07
[...]
    sum(outlet) for phiHc = -10128.4

faceSource patchInlet output:
    sum(inlet) for phi = -0.000200001
    sum(inlet) for HRR_fu = 10006.3
    sum(inlet) for phiH = 947.961
    sum(inlet) for phiHs = 4.22795
    sum(inlet) for phiHc = 943.733

Calculating averages

Time = 9.72

diagonal:  Solving for rho, Initial residual = 0, Final residual = 0, No Iterations 0
DILUPBiCG:  Solving for Ux, Initial residual = 0.104625, Final residual = 6.97022e-08, No Iterations 10
DILUPBiCG:  Solving for Uy, Initial residual = 0.0459901, Final residual = 7.57226e-08, No Iterations 9
DILUPBiCG:  Solving for O2, Initial residual = 0.0363503, Final residual = 5.55658e-09, No Iterations 9
max of O2 = 0.23301
min of O2 = 0.00109465
DILUPBiCG:  Solving for H2O, Initial residual = 0.0356231, Final residual = 4.30732e-10, No Iterations 11
max of H2O = 0.0936859
min of H2O = 0
DILUPBiCG:  Solving for CH4, Initial residual = 0.00986686, Final residual = 8.72566e-09, No Iterations 7
max of CH4 = 0.9821
min of CH4 = 0
DILUPBiCG:  Solving for CO2, Initial residual = 0.0357805, Final residual = 3.94215e-10, No Iterations 11
max of CO2 = 0.114469
min of CO2 = 0
max of N2 = 0.775815
min of N2 = 0
DILUPBiCG:  Solving for hs, Initial residual = 0.0355098, Final residual = 5.89884e-09, No Iterations 10
GAMG:  Solving for p_rgh, Initial residual = 0.198192, Final residual = 0.00121841, No Iterations 3
diagonal:  Solving for rho, Initial residual = 0, Final residual = 0, No Iterations 0
time step continuity errors : sum local = 0.000280781, global = -0.000124577, cumulative = -0.000395224
GAMG:  Solving for p_rgh, Initial residual = 0.0345907, Final residual = 5.00331e-07, No Iterations 7
diagonal:  Solving for rho, Initial residual = 0, Final residual = 0, No Iterations 0
time step continuity errors : sum local = 1.51004e-07, global = 9.12485e-09, cumulative = -0.000395215
DILUPBiCG:  Solving for k, Initial residual = 0.05337, Final residual = 3.24152e-09, No Iterations 10
ExecutionTime = 7.26 s  ClockTime = 15 s

Courant Number mean: 0.309599 max: 7.75179
deltaT = 0.04
faceSource patchSides output:
    sum(sides) for phi = -0.0862847
    sum(sides) for HRR_fu = -9.14177e-10
    sum(sides) for phiH = -2.86283
    sum(sides) for phiHs = 0.000238379
    sum(sides) for phiHc = -2.86307

faceSource patchOutlet output:
    sum(outlet) for phi = 0.101557
    sum(outlet) for HRR_fu = -57.0787
    sum(outlet) for phiH = -643.94
    sum(outlet) for phiHs = 8166.13
    sum(outlet) for phiHc = -8798.45

faceSource patchInlet output:
    sum(inlet) for phi = -0.000199997
    sum(inlet) for HRR_fu = 10006.2
    sum(inlet) for phiH = 948.005
    sum(inlet) for phiHs = 4.29203
    sum(inlet) for phiHc = 943.713

Calculating averages

Time = 9.76

diagonal:  Solving for rho, Initial residual = 0, Final residual = 0, No Iterations 0
DILUPBiCG:  Solving for Ux, Initial residual = 0.108666, Final residual = 2.43758e-08, No Iterations 10
DILUPBiCG:  Solving for Uy, Initial residual = 0.058602, Final residual = 7.55141e-09, No Iterations 10
DILUPBiCG:  Solving for O2, Initial residual = 0.0373862, Final residual = 1.58463e-09, No Iterations 10
max of O2 = 0.23301
min of O2 = 0.00112275
DILUPBiCG:  Solving for H2O, Initial residual = 0.0365711, Final residual = 9.17443e-10, No Iterations 11
max of H2O = 0.0924436
min of H2O = 0
DILUPBiCG:  Solving for CH4, Initial residual = 0.0102434, Final residual = 3.61673e-09, No Iterations 8
max of CH4 = 0.982039
min of CH4 = 0
DILUPBiCG:  Solving for CO2, Initial residual = 0.0367586, Final residual = 8.94585e-10, No Iterations 11
max of CO2 = 0.112948
min of CO2 = 0
max of N2 = 0.77626
min of N2 = 0
DILUPBiCG:  Solving for hs, Initial residual = 0.036518, Final residual = 2.55009e-09, No Iterations 11
GAMG:  Solving for p_rgh, Initial residual = 0.167556, Final residual = 0.00133001, No Iterations 3
diagonal:  Solving for rho, Initial residual = 0, Final residual = 0, No Iterations 0
time step continuity errors : sum local = 0.000397648, global = 0.000183832, cumulative = -0.000211383
GAMG:  Solving for p_rgh, Initial residual = 0.0548383, Final residual = 9.04932e-07, No Iterations 8
diagonal:  Solving for rho, Initial residual = 0, Final residual = 0, No Iterations 0
time step continuity errors : sum local = 1.9918e-07, global = -1.29128e-08, cumulative = -0.000211396
DILUPBiCG:  Solving for k, Initial residual = 0.0518189, Final residual = 4.24628e-09, No Iterations 10
ExecutionTime = 7.28 s  ClockTime = 15 s

Courant Number mean: 0.296429 max: 4.83952
deltaT = 0.04
faceSource patchSides output:
    sum(sides) for phi = -0.064902
    sum(sides) for HRR_fu = -7.67125e-10
    sum(sides) for phiH = -2.15302
    sum(sides) for phiHs = 0.000539872
    sum(sides) for phiHc = -2.15356

faceSource patchOutlet output:
    sum(outlet) for phi = 0.0788259
    sum(outlet) for HRR_fu = -51.5505
    sum(outlet) for phiH = -496.666
    sum(outlet) for phiHs = 7195.71
    sum(outlet) for phiHc = -7662.93

faceSource patchInlet output:
    sum(inlet) for phi = -0.000200003
    sum(inlet) for HRR_fu = 10006.4
    sum(inlet) for phiH = 948.092
    sum(inlet) for phiHs = 4.35981
    sum(inlet) for phiHc = 943.732

Calculating averages

Time = 9.8

diagonal:  Solving for rho, Initial residual = 0, Final residual = 0, No Iterations 0
DILUPBiCG:  Solving for Ux, Initial residual = 0.128601, Final residual = 3.53041e-08, No Iterations 9
DILUPBiCG:  Solving for Uy, Initial residual = 0.0574695, Final residual = 2.05498e-08, No Iterations 9
DILUPBiCG:  Solving for O2, Initial residual = 0.03519, Final residual = 2.05454e-09, No Iterations 10
max of O2 = 0.23301
min of O2 = 0.00114361
DILUPBiCG:  Solving for H2O, Initial residual = 0.0347157, Final residual = 3.42484e-09, No Iterations 10
max of H2O = 0.0917283
min of H2O = 0
DILUPBiCG:  Solving for CH4, Initial residual = 0.01068, Final residual = 2.14043e-09, No Iterations 9
max of CH4 = 0.981991
min of CH4 = 0
DILUPBiCG:  Solving for CO2, Initial residual = 0.0348555, Final residual = 3.33486e-09, No Iterations 10
max of CO2 = 0.112102
min of CO2 = 0
max of N2 = 0.776028
min of N2 = 0
DILUPBiCG:  Solving for hs, Initial residual = 0.034733, Final residual = 8.93756e-10, No Iterations 11
GAMG:  Solving for p_rgh, Initial residual = 0.241661, Final residual = 0.0011968, No Iterations 3
diagonal:  Solving for rho, Initial residual = 0, Final residual = 0, No Iterations 0
time step continuity errors : sum local = 0.000246956, global = 8.68387e-06, cumulative = -0.000202712
GAMG:  Solving for p_rgh, Initial residual = 0.0597789, Final residual = 8.47422e-07, No Iterations 8
diagonal:  Solving for rho, Initial residual = 0, Final residual = 0, No Iterations 0
time step continuity errors : sum local = 1.68913e-07, global = -8.17172e-10, cumulative = -0.000202713
DILUPBiCG:  Solving for k, Initial residual = 0.0479651, Final residual = 7.05371e-09, No Iterations 9
ExecutionTime = 7.28 s  ClockTime = 15 s

Courant Number mean: 0.284738 max: 4.45893
deltaT = 0.04
faceSource patchSides output:
    sum(sides) for phi = -0.0360184
    sum(sides) for HRR_fu = -1.2024e-09
    sum(sides) for phiH = -1.19383
    sum(sides) for phiHs = 0.00131623
    sum(sides) for phiHc = -1.19515

faceSource patchOutlet output:
    sum(outlet) for phi = 0.0574741
    sum(outlet) for HRR_fu = -45.5492
    sum(outlet) for phiH = -447.972
    sum(outlet) for phiHs = 5995.41
    sum(outlet) for phiHc = -6428.01

faceSource patchInlet output:
    sum(inlet) for phi = -0.000200001
    sum(inlet) for HRR_fu = 10006.3
    sum(inlet) for phiH = 948.166
    sum(inlet) for phiHs = 4.45289
    sum(inlet) for phiHc = 943.713

Calculating averages

Time = 9.84

diagonal:  Solving for rho, Initial residual = 0, Final residual = 0, No Iterations 0
DILUPBiCG:  Solving for Ux, Initial residual = 0.142591, Final residual = 8.3987e-08, No Iterations 9
DILUPBiCG:  Solving for Uy, Initial residual = 0.060136, Final residual = 2.49365e-08, No Iterations 10
DILUPBiCG:  Solving for O2, Initial residual = 0.0338827, Final residual = 5.38847e-09, No Iterations 10
max of O2 = 0.23301
min of O2 = 0.00114317
DILUPBiCG:  Solving for H2O, Initial residual = 0.0331875, Final residual = 5.31897e-09, No Iterations 10
max of H2O = 0.0927043
min of H2O = 0
DILUPBiCG:  Solving for CH4, Initial residual = 0.00910057, Final residual = 3.96756e-09, No Iterations 8
max of CH4 = 0.981964
min of CH4 = 0
DILUPBiCG:  Solving for CO2, Initial residual = 0.0333555, Final residual = 5.33207e-09, No Iterations 10
max of CO2 = 0.113289
min of CO2 = 0
max of N2 = 0.774725
min of N2 = 0
DILUPBiCG:  Solving for hs, Initial residual = 0.0335743, Final residual = 6.05255e-09, No Iterations 10
GAMG:  Solving for p_rgh, Initial residual = 0.220901, Final residual = 0.0016108, No Iterations 3
diagonal:  Solving for rho, Initial residual = 0, Final residual = 0, No Iterations 0
time step continuity errors : sum local = 0.000340805, global = -0.000132158, cumulative = -0.000334871
GAMG:  Solving for p_rgh, Initial residual = 0.0371946, Final residual = 3.65635e-07, No Iterations 8
diagonal:  Solving for rho, Initial residual = 0, Final residual = 0, No Iterations 0
time step continuity errors : sum local = 1.07536e-07, global = 2.19295e-08, cumulative = -0.00033485
DILUPBiCG:  Solving for k, Initial residual = 0.0476945, Final residual = 8.30598e-09, No Iterations 9
ExecutionTime = 7.31 s  ClockTime = 16 s

Courant Number mean: 0.298295 max: 4.4381
deltaT = 0.04
faceSource patchSides output:
    sum(sides) for phi = -0.0447546
    sum(sides) for HRR_fu = -1.50089e-08
    sum(sides) for phiH = -1.48268
    sum(sides) for phiHs = 0.00234259
    sum(sides) for phiHc = -1.48503

faceSource patchOutlet output:
    sum(outlet) for phi = 0.0721294
    sum(outlet) for HRR_fu = -44.3063
    sum(outlet) for phiH = -527.408
    sum(outlet) for phiHs = 5572.32
    sum(outlet) for phiHc = -6097.03

faceSource patchInlet output:
    sum(inlet) for phi = -0.000199996
    sum(inlet) for HRR_fu = 10006.1
    sum(inlet) for phiH = 948.237
    sum(inlet) for phiHs = 4.55769
    sum(inlet) for phiHc = 943.68

Calculating averages

Time = 9.88

diagonal:  Solving for rho, Initial residual = 0, Final residual = 0, No Iterations 0
DILUPBiCG:  Solving for Ux, Initial residual = 0.0944066, Final residual = 1.82997e-08, No Iterations 10
DILUPBiCG:  Solving for Uy, Initial residual = 0.0493115, Final residual = 6.90629e-08, No Iterations 9
DILUPBiCG:  Solving for O2, Initial residual = 0.0339671, Final residual = 1.85217e-09, No Iterations 10
max of O2 = 0.23301
min of O2 = 0.00112244
DILUPBiCG:  Solving for H2O, Initial residual = 0.0336367, Final residual = 9.05323e-09, No Iterations 10
max of H2O = 0.0921224
min of H2O = 0
DILUPBiCG:  Solving for CH4, Initial residual = 0.00862575, Final residual = 4.96849e-09, No Iterations 8
max of CH4 = 0.981953
min of CH4 = 0
DILUPBiCG:  Solving for CO2, Initial residual = 0.0337432, Final residual = 7.68791e-09, No Iterations 10
max of CO2 = 0.11258
min of CO2 = 0
max of N2 = 0.773677
min of N2 = 0
DILUPBiCG:  Solving for hs, Initial residual = 0.0341638, Final residual = 5.13974e-09, No Iterations 10
GAMG:  Solving for p_rgh, Initial residual = 0.155766, Final residual = 0.000782598, No Iterations 3
diagonal:  Solving for rho, Initial residual = 0, Final residual = 0, No Iterations 0
time step continuity errors : sum local = 0.000233559, global = 6.51182e-05, cumulative = -0.000269731
GAMG:  Solving for p_rgh, Initial residual = 0.0399641, Final residual = 6.62339e-07, No Iterations 7
diagonal:  Solving for rho, Initial residual = 0, Final residual = 0, No Iterations 0
time step continuity errors : sum local = 1.76305e-07, global = -4.80881e-08, cumulative = -0.000269779
DILUPBiCG:  Solving for k, Initial residual = 0.0464048, Final residual = 8.7441e-09, No Iterations 9
ExecutionTime = 7.33 s  ClockTime = 16 s

Courant Number mean: 0.305664 max: 3.92256
deltaT = 0.04
faceSource patchSides output:
    sum(sides) for phi = -0.0433996
    sum(sides) for HRR_fu = -4.85894e-08
    sum(sides) for phiH = -1.43589
    sum(sides) for phiHs = 0.00421362
    sum(sides) for phiHc = -1.44008

faceSource patchOutlet output:
    sum(outlet) for phi = 0.074315
    sum(outlet) for HRR_fu = -44.13
    sum(outlet) for phiH = -390.113
    sum(outlet) for phiHs = 5618.19
    sum(outlet) for phiHc = -6004.41

faceSource patchInlet output:
    sum(inlet) for phi = -0.0002
    sum(inlet) for HRR_fu = 10006.3
    sum(inlet) for phiH = 948.326
    sum(inlet) for phiHs = 4.63675
    sum(inlet) for phiHc = 943.689

Calculating averages

Time = 9.92

diagonal:  Solving for rho, Initial residual = 0, Final residual = 0, No Iterations 0
DILUPBiCG:  Solving for Ux, Initial residual = 0.0845388, Final residual = 4.16101e-08, No Iterations 9
DILUPBiCG:  Solving for Uy, Initial residual = 0.0442091, Final residual = 5.97723e-09, No Iterations 11
DILUPBiCG:  Solving for O2, Initial residual = 0.0345047, Final residual = 2.74828e-09, No Iterations 10
max of O2 = 0.23301
min of O2 = 0.00105108
DILUPBiCG:  Solving for H2O, Initial residual = 0.0339467, Final residual = 3.25878e-09, No Iterations 10
max of H2O = 0.0895645
min of H2O = 0
DILUPBiCG:  Solving for CH4, Initial residual = 0.0102503, Final residual = 7.41412e-09, No Iterations 8
max of CH4 = 0.98214
min of CH4 = 0
DILUPBiCG:  Solving for CO2, Initial residual = 0.0340578, Final residual = 2.99209e-09, No Iterations 10
max of CO2 = 0.109452
min of CO2 = 0
max of N2 = 0.771204
min of N2 = 0
DILUPBiCG:  Solving for hs, Initial residual = 0.0341561, Final residual = 9.85469e-09, No Iterations 10
GAMG:  Solving for p_rgh, Initial residual = 0.165923, Final residual = 0.000620652, No Iterations 3
diagonal:  Solving for rho, Initial residual = 0, Final residual = 0, No Iterations 0
time step continuity errors : sum local = 0.000167006, global = -5.73844e-05, cumulative = -0.000327164
GAMG:  Solving for p_rgh, Initial residual = 0.0384235, Final residual = 5.86975e-07, No Iterations 8
diagonal:  Solving for rho, Initial residual = 0, Final residual = 0, No Iterations 0
time step continuity errors : sum local = 1.64554e-07, global = -1.78814e-08, cumulative = -0.000327182
DILUPBiCG:  Solving for k, Initial residual = 0.0463422, Final residual = 3.45413e-09, No Iterations 10
ExecutionTime = 7.37 s  ClockTime = 16 s

Courant Number mean: 0.312862 max: 3.84239
deltaT = 0.04
faceSource patchSides output:
    sum(sides) for phi = -0.0409444
    sum(sides) for HRR_fu = -2.92492e-07
    sum(sides) for phiH = -1.3564
    sum(sides) for phiHs = 0.00222185
    sum(sides) for phiHc = -1.35863

faceSource patchOutlet output:
    sum(outlet) for phi = 0.0720162
    sum(outlet) for HRR_fu = -48.5842
    sum(outlet) for phiH = -622.069
    sum(outlet) for phiHs = 5780.55
    sum(outlet) for phiHc = -6402.74

faceSource patchInlet output:
    sum(inlet) for phi = -0.000199999
    sum(inlet) for HRR_fu = 10006.2
    sum(inlet) for phiH = 948.348
    sum(inlet) for phiHs = 4.69576
    sum(inlet) for phiHc = 943.652

Calculating averages

Time = 9.96

diagonal:  Solving for rho, Initial residual = 0, Final residual = 0, No Iterations 0
DILUPBiCG:  Solving for Ux, Initial residual = 0.08632, Final residual = 3.41823e-08, No Iterations 9
DILUPBiCG:  Solving for Uy, Initial residual = 0.0439185, Final residual = 5.70687e-08, No Iterations 9
DILUPBiCG:  Solving for O2, Initial residual = 0.0342875, Final residual = 9.66533e-09, No Iterations 10
max of O2 = 0.23301
min of O2 = 0.00104985
DILUPBiCG:  Solving for H2O, Initial residual = 0.0341792, Final residual = 4.79579e-09, No Iterations 10
max of H2O = 0.0897405
min of H2O = 0
DILUPBiCG:  Solving for CH4, Initial residual = 0.00787188, Final residual = 2.99902e-09, No Iterations 8
max of CH4 = 0.982081
min of CH4 = 0
DILUPBiCG:  Solving for CO2, Initial residual = 0.034228, Final residual = 4.48044e-09, No Iterations 10
max of CO2 = 0.109666
min of CO2 = 0
max of N2 = 0.77037
min of N2 = 0
DILUPBiCG:  Solving for hs, Initial residual = 0.0347395, Final residual = 7.78896e-10, No Iterations 11
GAMG:  Solving for p_rgh, Initial residual = 0.156886, Final residual = 0.000930658, No Iterations 3
diagonal:  Solving for rho, Initial residual = 0, Final residual = 0, No Iterations 0
time step continuity errors : sum local = 0.000263531, global = 2.08842e-05, cumulative = -0.000306298
GAMG:  Solving for p_rgh, Initial residual = 0.0377853, Final residual = 3.99584e-07, No Iterations 8
diagonal:  Solving for rho, Initial residual = 0, Final residual = 0, No Iterations 0
time step continuity errors : sum local = 1.12297e-07, global = -6.4699e-09, cumulative = -0.000306304
DILUPBiCG:  Solving for k, Initial residual = 0.0471747, Final residual = 2.36768e-09, No Iterations 10
ExecutionTime = 7.39 s  ClockTime = 16 s

Courant Number mean: 0.319894 max: 4.08293
deltaT = 0.04
faceSource patchSides output:
    sum(sides) for phi = -0.0372637
    sum(sides) for HRR_fu = -9.73505e-07
    sum(sides) for phiH = -1.23233
    sum(sides) for phiHs = 0.00423602
    sum(sides) for phiHc = -1.23656

faceSource patchOutlet output:
    sum(outlet) for phi = 0.0701469
    sum(outlet) for HRR_fu = -52.4243
    sum(outlet) for phiH = -764.191
    sum(outlet) for phiHs = 5909.14
    sum(outlet) for phiHc = -6676.51

faceSource patchInlet output:
    sum(inlet) for phi = -0.000200001
    sum(inlet) for HRR_fu = 10006.3
    sum(inlet) for phiH = 948.391
    sum(inlet) for phiHs = 4.72507
    sum(inlet) for phiHc = 943.666

Calculating averages

Time = 10

diagonal:  Solving for rho, Initial residual = 0, Final residual = 0, No Iterations 0
DILUPBiCG:  Solving for Ux, Initial residual = 0.0830119, Final residual = 2.30276e-09, No Iterations 11
DILUPBiCG:  Solving for Uy, Initial residual = 0.0423905, Final residual = 3.39742e-08, No Iterations 9
DILUPBiCG:  Solving for O2, Initial residual = 0.0349715, Final residual = 6.78984e-09, No Iterations 10
max of O2 = 0.23301
min of O2 = 0.00101947
DILUPBiCG:  Solving for H2O, Initial residual = 0.0348509, Final residual = 2.94678e-09, No Iterations 10
max of H2O = 0.0889042
min of H2O = 0
DILUPBiCG:  Solving for CH4, Initial residual = 0.00910637, Final residual = 1.40058e-09, No Iterations 9
max of CH4 = 0.982055
min of CH4 = 0
DILUPBiCG:  Solving for CO2, Initial residual = 0.0348927, Final residual = 2.84521e-09, No Iterations 10
max of CO2 = 0.108643
min of CO2 = 0
max of N2 = 0.769434
min of N2 = 0
DILUPBiCG:  Solving for hs, Initial residual = 0.0350279, Final residual = 5.34291e-09, No Iterations 10
GAMG:  Solving for p_rgh, Initial residual = 0.163473, Final residual = 0.000934898, No Iterations 3
diagonal:  Solving for rho, Initial residual = 0, Final residual = 0, No Iterations 0
time step continuity errors : sum local = 0.000267178, global = -2.54063e-05, cumulative = -0.00033171
GAMG:  Solving for p_rgh, Initial residual = 0.0364208, Final residual = 3.89273e-07, No Iterations 8
diagonal:  Solving for rho, Initial residual = 0, Final residual = 0, No Iterations 0
time step continuity errors : sum local = 1.1554e-07, global = -2.47578e-08, cumulative = -0.000331735
DILUPBiCG:  Solving for k, Initial residual = 0.0450363, Final residual = 4.16819e-09, No Iterations 10
ExecutionTime = 7.41 s  ClockTime = 16 s

faceSource patchSides output:
    sum(sides) for phi = -0.034571
    sum(sides) for HRR_fu = -4.23167e-06
    sum(sides) for phiH = -1.14254
    sum(sides) for phiHs = 0.00497719
    sum(sides) for phiHc = -1.14752

faceSource patchOutlet output:
    sum(outlet) for phi = 0.0659338
    sum(outlet) for HRR_fu = -51.9842
    sum(outlet) for phiH = -736.331
    sum(outlet) for phiHs = 5749.37
    sum(outlet) for phiHc = -6488.77

faceSource patchInlet output:
    sum(inlet) for phi = -0.000199999
    sum(inlet) for HRR_fu = 10006.2
    sum(inlet) for phiH = 948.364
    sum(inlet) for phiHs = 4.73137
    sum(inlet) for phiHc = 943.633

Calculating averages

End

Finalising parallel run
